file 10428832 1633827570                                        
version 2
run General-0-20211009-19:56:21-1681080
attr configname General
attr datetime 20211009-19:56:21
attr experiment General
attr inifile omnetpp.ini
attr iterationvars ""
attr iterationvarsf ""
attr measurement ""
attr network IRTSystemXScenario
attr processid 1681080
attr repetition 0
attr replication #0
attr resultdir results
attr runnumber 0
attr seedset 0
param **.debug true
param **.coreDebug true
param *.playgroundSizeX 3900m
param *.playgroundSizeY 1700m
param *.playgroundSizeZ 50m
param *.annotations.draw true
param *.obstacles.obstacles "xmldoc(\"config.xml\", \"//AnalogueModel[@type='SimpleObstacleShadowing']/obstacles\")"
param *.manager.updateInterval 1s
param *.manager.host "\"localhost\""
param *.manager.port 9999
param *.manager.autoShutdown false
param *.manager.launchConfig "xmldoc(\"IRTSystemX.launchd.xml\")"
param *.connectionManager.sendDirect true
param *.connectionManager.maxInterfDist 420m
param *.connectionManager.drawMaxIntfDist true
param *.**.nic.mac1609_4.useServiceChannel false
param *.**.nic.mac1609_4.txPower 20mW
param *.**.nic.mac1609_4.bitrate 6Mbps
param *.**.nic.phy80211p.minPowerLevel -89dBm
param *.**.nic.phy80211p.useNoiseFloor true
param *.**.nic.phy80211p.noiseFloor -98dBm
param *.**.nic.phy80211p.decider "xmldoc(\"config.xml\")"
param *.**.nic.phy80211p.analogueModels "xmldoc(\"config.xml\")"
param *.**.nic.phy80211p.usePropagationDelay true
param *.**.nic.phy80211p.antenna "xmldoc(\"antenna.xml\", \"/root/Antenna[@id='monopole']\")"
param *.node[*].nic.phy80211p.antennaOffsetY "0 m"
param *.node[*].nic.phy80211p.antennaOffsetZ "1.895 m"
param *.node[*].applType "\"JosephVeinsApp\""
param *.node[*].appl.headerLength "80 bit"
param *.node[*].appl.sendBeacons true
param *.node[*].appl.dataOnSch false
param *.node[*].appl.beaconInterval 1s
param *.node[*].appl.serialNumber "\"IRTSystemXScenario-ITSG5-1\""
param *.node[*].appl.savePath "\"../../../f2md-results/sim-traces/\""
param *.node[*].appl.UseAttacksServer false
param *.node[*].appl.MixLocalAttacks true
param *.node[*].appl.RandomLocalMix false
param *.node[*].appl.LOCAL_ATTACKER_PROB 0.1
param *.node[*].appl.LOCAL_ATTACK_TYPE 2
param *.node[*].appl.GLOBAL_ATTACKER_PROB 0.0
param *.node[*].appl.GLOBAL_ATTACK_TYPE 20
param *.node[*].appl.EnablePC false
param *.node[*].appl.PC_TYPE 5
param *.node[*].appl.EnableV1 true
param *.node[*].appl.EnableV2 false
param *.node[*].appl.SaveStatsV1 true
param *.node[*].appl.SaveStatsV2 false
param *.node[*].appl.checksVersionV1 1
param *.node[*].appl.checksVersionV2 2
param *.node[*].appl.appTypeV1 0
param *.node[*].appl.appTypeV2 5
param *.node[*].appl.appl.REPORT_VERSION 2
param *.node[*].appl.sendReportsV1 false
param *.node[*].appl.sendReportsV2 false
param *.node[*].appl.maHostV1 "\"localhost\""
param *.node[*].appl.maHostV2 "\"localhost\""
param *.node[*].appl.maPortV1 9980
param *.node[*].appl.maPortV2 9981
param *.node[*].appl.writeSelfMsg false
param *.node[*].appl.writeListSelfMsg false
param *.node[*].appl.writeBsmsV1 false
param *.node[*].appl.writeBsmsV2 false
param *.node[*].appl.writeListBsmsV1 true
param *.node[*].appl.writeListBsmsV2 true
param *.node[*].appl.writeReportsV1 false
param *.node[*].appl.writeReportsV2 false
param *.node[*].appl.writeListReportsV1 false
param *.node[*].appl.writeListReportsV2 false
param *.node[*].appl.writeVeReMi true
param *.node[*].appl.VeReMiSliceTime 3600
param *.node[*].appl.veremiConf true
param *.node[*].appl.randomConf false
param *.node[*].appl.variableConf false
param *.node[*].appl.confPos 10.0
param *.node[*].appl.confSpd 0.05
param *.node[*].appl.confHea 20.0
param *.node[*].appl.confAcc 0.01
param *.node[*].appl.confPrec 100.0
param *.node[*].appl.minConf 0.20
param *.node[*].appl.SAVE_PERIOD 10
param *.node[*].appl.PRINT_PERIOD 60
param *.node[*].appl.START_SAVE 0
param *.node[*].appl.START_ATTACK 0
param *.node[*].appl.enableVarThreV1 false
param *.node[*].appl.enableVarThreV2 false
param *.node[*].appl.MAX_PROXIMITY_RANGE_L 30
param *.node[*].appl.MAX_PROXIMITY_RANGE_W 3
param *.node[*].appl.MAX_PROXIMITY_DISTANCE 2
param *.node[*].appl.MAX_CONFIDENCE_RANGE 10
param *.node[*].appl.MAX_PLAUSIBLE_RANGE 420
param *.node[*].appl.MAX_TIME_DELTA 3.1
param *.node[*].appl.MAX_DELTA_INTER 2.0
param *.node[*].appl.MAX_SA_RANGE 420
param *.node[*].appl.MAX_SA_TIME 2.1
param *.node[*].appl.MAX_KALMAN_TIME 3.1
param *.node[*].appl.KALMAN_POS_RANGE 1.0
param *.node[*].appl.KALMAN_SPEED_RANGE 4.0
param *.node[*].appl.KALMAN_MIN_POS_RANGE 4.0
param *.node[*].appl.KALMAN_MIN_SPEED_RANGE 1.0
param *.node[*].appl.MIN_MAX_SPEED 40
param *.node[*].appl.MIN_MAX_ACCEL 3
param *.node[*].appl.MIN_MAX_DECEL 4.5
param *.node[*].appl.MAX_MGT_RNG 4
param *.node[*].appl.MAX_MGT_RNG_DOWN 6.2
param *.node[*].appl.MAX_MGT_RNG_UP 2.1
param *.node[*].appl.MAX_BEACON_FREQUENCY 0.99
param *.node[*].appl.MAX_DISTANCE_FROM_ROUTE 2
param *.node[*].appl.MAX_NON_ROUTE_SPEED -1
param *.node[*].appl.MAX_HEADING_CHANGE 90
param *.node[*].appl.DELTA_BSM_TIME 5
param *.node[*].appl.DELTA_REPORT_TIME 5
param *.node[*].appl.POS_HEADING_TIME 1.1
param *.node[*].appl.MAX_TARGET_TIME 2
param *.node[*].appl.MAX_ACCUSED_TIME 2
param *.node[*].appl.parVar 0.55
param *.node[*].appl.RandomPosOffsetX 70.0
param *.node[*].appl.RandomPosOffsetY 70.0
param *.node[*].appl.RandomSpeedX 40.0
param *.node[*].appl.RandomSpeedY 40.0
param *.node[*].appl.RandomSpeedOffsetX 7.0
param *.node[*].appl.RandomSpeedOffsetY 7.0
param *.node[*].appl.RandomAccelX 2.0
param *.node[*].appl.RandomAccelY 2.0
param *.node[*].appl.StopProb 0.05
param *.node[*].appl.StaleMessages_Buffer 60
param *.node[*].appl.DosMultipleFreq 4
param *.node[*].appl.DosMultipleFreqSybil 2
param *.node[*].appl.ReplaySeqNum 6
param *.node[*].appl.SybilVehNumber 5
param *.node[*].appl.SelfSybil false
param *.node[*].appl.SybilDistanceX 5
param *.node[*].appl.SybilDistanceY 2
param *.node[*].appl.MyConstantPos 1000
param *.node[*].appl.Period_Change_Time 240
param *.node[*].appl.Tolerance_Buffer 10
param *.node[*].appl.Period_Change_Distance 80
param *.node[*].appl.Random_Change_Chance 0.1
param *.node[*].appl.InitialHistory 5
param *.node[*].appl.CollectionPeriod 10
param *.node[*].appl.UntolerancePeriod 5
param *.node[*].veinsmobilityType.debug false
param *.node[*].veinsmobility.x 0
param *.node[*].veinsmobility.y 0
param *.node[*].veinsmobility.z 1.895
param *.node[*].veinsmobility.setHostSpeed true
param *.node[*].veinsmobility.setHostAcceleration true

vector 0 IRTSystemXScenario.node[0].veinsmobility posx ETV
vector 1 IRTSystemXScenario.node[0].veinsmobility posy ETV
vector 2 IRTSystemXScenario.node[0].veinsmobility speed ETV
vector 3 IRTSystemXScenario.node[0].veinsmobility acceleration ETV
vector 4 IRTSystemXScenario.node[0].veinsmobility co2emission ETV
vector 5 IRTSystemXScenario.node[1].veinsmobility posx ETV
vector 6 IRTSystemXScenario.node[1].veinsmobility posy ETV
vector 7 IRTSystemXScenario.node[1].veinsmobility speed ETV
vector 8 IRTSystemXScenario.node[1].veinsmobility acceleration ETV
vector 9 IRTSystemXScenario.node[1].veinsmobility co2emission ETV
vector 10 IRTSystemXScenario.node[2].veinsmobility posx ETV
vector 11 IRTSystemXScenario.node[2].veinsmobility posy ETV
vector 12 IRTSystemXScenario.node[2].veinsmobility speed ETV
vector 13 IRTSystemXScenario.node[2].veinsmobility acceleration ETV
vector 14 IRTSystemXScenario.node[2].veinsmobility co2emission ETV
vector 15 IRTSystemXScenario.node[3].veinsmobility posx ETV
vector 16 IRTSystemXScenario.node[3].veinsmobility posy ETV
vector 17 IRTSystemXScenario.node[3].veinsmobility speed ETV
4	7592 277 22 375 3 14 12 0.973 8.5561654024296 53.122797232681 303.77644650909
3	7869 299 22 375 3 14 12 -0.91663798110117 2.0333020123839 11.437584044144 22.879214940787
2	8168 309 12 375 2 14 13 3.9997665032128 15.482056763595 146.60900018279 1873.2534809023
1	8477 333 2 375 1 14 14 661.49546355497 754.46975968865 10205.253938933 7452435.5417427
0	8810 333 2 375 1 14 14 2190.6977131399 2242.3482099535 31046.47756663 68853440.904699
vector 18 IRTSystemXScenario.node[3].veinsmobility acceleration ETV
vector 19 IRTSystemXScenario.node[3].veinsmobility co2emission ETV
vector 20 IRTSystemXScenario.node[4].veinsmobility posx ETV
vector 21 IRTSystemXScenario.node[4].veinsmobility posy ETV
vector 22 IRTSystemXScenario.node[4].veinsmobility speed ETV
vector 23 IRTSystemXScenario.node[4].veinsmobility acceleration ETV
vector 24 IRTSystemXScenario.node[4].veinsmobility co2emission ETV
vector 25 IRTSystemXScenario.node[5].veinsmobility posx ETV
vector 26 IRTSystemXScenario.node[5].veinsmobility posy ETV
vector 27 IRTSystemXScenario.node[5].veinsmobility speed ETV
vector 28 IRTSystemXScenario.node[5].veinsmobility acceleration ETV
vector 29 IRTSystemXScenario.node[5].veinsmobility co2emission ETV
vector 30 IRTSystemXScenario.node[6].veinsmobility posx ETV
vector 31 IRTSystemXScenario.node[6].veinsmobility posy ETV
vector 32 IRTSystemXScenario.node[6].veinsmobility speed ETV
vector 33 IRTSystemXScenario.node[6].veinsmobility acceleration ETV
vector 34 IRTSystemXScenario.node[6].veinsmobility co2emission ETV
vector 35 IRTSystemXScenario.node[7].veinsmobility posx ETV
vector 36 IRTSystemXScenario.node[7].veinsmobility posy ETV
vector 37 IRTSystemXScenario.node[7].veinsmobility speed ETV
vector 38 IRTSystemXScenario.node[7].veinsmobility acceleration ETV
vector 39 IRTSystemXScenario.node[7].veinsmobility co2emission ETV
vector 40 IRTSystemXScenario.node[8].veinsmobility posx ETV
vector 41 IRTSystemXScenario.node[8].veinsmobility posy ETV
vector 42 IRTSystemXScenario.node[8].veinsmobility speed ETV
vector 43 IRTSystemXScenario.node[8].veinsmobility acceleration ETV
vector 44 IRTSystemXScenario.node[8].veinsmobility co2emission ETV
vector 45 IRTSystemXScenario.node[9].veinsmobility posx ETV
vector 46 IRTSystemXScenario.node[9].veinsmobility posy ETV
vector 47 IRTSystemXScenario.node[9].veinsmobility speed ETV
vector 48 IRTSystemXScenario.node[9].veinsmobility acceleration ETV
vector 49 IRTSystemXScenario.node[9].veinsmobility co2emission ETV
vector 50 IRTSystemXScenario.node[10].veinsmobility posx ETV
vector 51 IRTSystemXScenario.node[10].veinsmobility posy ETV
vector 52 IRTSystemXScenario.node[10].veinsmobility speed ETV
vector 53 IRTSystemXScenario.node[10].veinsmobility acceleration ETV
vector 54 IRTSystemXScenario.node[10].veinsmobility co2emission ETV
vector 55 IRTSystemXScenario.node[11].veinsmobility posx ETV
vector 56 IRTSystemXScenario.node[11].veinsmobility posy ETV
vector 57 IRTSystemXScenario.node[11].veinsmobility speed ETV
vector 58 IRTSystemXScenario.node[11].veinsmobility acceleration ETV
vector 59 IRTSystemXScenario.node[11].veinsmobility co2emission ETV
vector 60 IRTSystemXScenario.node[12].veinsmobility posx ETV
vector 61 IRTSystemXScenario.node[12].veinsmobility posy ETV
vector 62 IRTSystemXScenario.node[12].veinsmobility speed ETV
vector 63 IRTSystemXScenario.node[12].veinsmobility acceleration ETV
vector 64 IRTSystemXScenario.node[12].veinsmobility co2emission ETV
vector 65 IRTSystemXScenario.node[13].veinsmobility posx ETV
vector 66 IRTSystemXScenario.node[13].veinsmobility posy ETV
vector 67 IRTSystemXScenario.node[13].veinsmobility speed ETV
vector 68 IRTSystemXScenario.node[13].veinsmobility acceleration ETV
vector 69 IRTSystemXScenario.node[13].veinsmobility co2emission ETV
44	12458 535 2470 7048 39 59 21 0.973 10.235554712293 99.155727913718 649.56628245225
43	12993 572 2470 7048 39 59 21 -4.5 2.1375918135932 11.389156780974 84.337560579647
42	13565 589 2317 7048 38 59 22 3.9814649254599 16.833715233215 259.80640244205 3389.5627241185
41	14154 618 2156 7048 37 59 23 1007.0157825227 1174.4655557861 25081.278710412 27421151.680492
40	14772 617 2156 7048 37 59 23 2148.6885471452 2262.3518865704 50094.528603395 109132521.29318
vector 70 IRTSystemXScenario.node[14].veinsmobility posx ETV
vector 71 IRTSystemXScenario.node[14].veinsmobility posy ETV
vector 72 IRTSystemXScenario.node[14].veinsmobility speed ETV
vector 73 IRTSystemXScenario.node[14].veinsmobility acceleration ETV
vector 74 IRTSystemXScenario.node[14].veinsmobility co2emission ETV
29	15710 1082 832 8363 23 63 41 0.973 7.7741064595786 108.74120271763 412.33612516355
28	16792 1188 832 8363 23 63 41 -4.4726186830106 2.456743781839 8.3137263152149 45.5507410629
27	17980 1125 770 8363 22 63 42 4.5935275062523 12.938842573884 506.81804648051 6265.7776694113
26	19105 1153 708 8363 21 63 43 1031.0054303577 1229.3226593241 49822.521145707 57909265.399638
25	20258 1152 708 8363 21 63 43 2411.2805467586 2546.7452652506 105458.57233479 258723039.24061
19	21410 1426 432 10418 15 69 55 0.973 8.9297831207284 174.30382301431 813.68642752372
18	22836 1552 432 10418 15 69 55 -4.4890366353944 2.142309814028 10.582888791596 103.22092168284
17	24388 1493 375 10418 14 69 56 3.9688103431286 14.641519621754 733.49007860488 10016.02727536
16	25881 1526 310 10418 13 69 57 137.93764461688 341.16516678556 16315.548446729 4884561.8472776
15	27407 1521 310 10418 13 69 57 2017.2059953726 2319.7097347392 125208.68795607 275615470.633
vector 75 IRTSystemXScenario.node[15].veinsmobility posx ETV
vector 76 IRTSystemXScenario.node[15].veinsmobility posy ETV
vector 77 IRTSystemXScenario.node[15].veinsmobility speed ETV
vector 78 IRTSystemXScenario.node[15].veinsmobility acceleration ETV
vector 79 IRTSystemXScenario.node[15].veinsmobility co2emission ETV
vector 80 IRTSystemXScenario.node[16].veinsmobility posx ETV
vector 81 IRTSystemXScenario.node[16].veinsmobility posy ETV
vector 82 IRTSystemXScenario.node[16].veinsmobility speed ETV
vector 83 IRTSystemXScenario.node[16].veinsmobility acceleration ETV
vector 84 IRTSystemXScenario.node[16].veinsmobility co2emission ETV
vector 85 IRTSystemXScenario.node[17].veinsmobility posx ETV
vector 86 IRTSystemXScenario.node[17].veinsmobility posy ETV
vector 87 IRTSystemXScenario.node[17].veinsmobility speed ETV
vector 88 IRTSystemXScenario.node[17].veinsmobility acceleration ETV
vector 89 IRTSystemXScenario.node[17].veinsmobility co2emission ETV
vector 90 IRTSystemXScenario.node[18].veinsmobility posx ETV
vector 91 IRTSystemXScenario.node[18].veinsmobility posy ETV
vector 92 IRTSystemXScenario.node[18].veinsmobility speed ETV
14	30075 2045 222 17476 11 87 77 0.973 7.2749963277944 158.62342953437 415.84153370199
13	32120 2259 222 17476 11 87 77 -4.3741206867792 2.0149940153537 3.8084605646589 38.367655468841
12	34379 2105 178 17476 10 87 78 4.0433302277257 13.129162995024 861.74572391308 10067.849477956
11	36484 2123 134 17476 9 87 79 296.6578645139 698.36603950934 39519.974626007 21802814.591412
10	38607 2125 134 17476 9 87 79 1797.9737161038 2262.6172936845 156971.89957976 313227172.07205
vector 93 IRTSystemXScenario.node[18].veinsmobility acceleration ETV
vector 94 IRTSystemXScenario.node[18].veinsmobility co2emission ETV
vector 95 IRTSystemXScenario.node[19].veinsmobility posx ETV
vector 96 IRTSystemXScenario.node[19].veinsmobility posy ETV
vector 97 IRTSystemXScenario.node[19].veinsmobility speed ETV
vector 98 IRTSystemXScenario.node[19].veinsmobility acceleration ETV
vector 99 IRTSystemXScenario.node[19].veinsmobility co2emission ETV
vector 100 IRTSystemXScenario.node[20].veinsmobility posx ETV
vector 101 IRTSystemXScenario.node[20].veinsmobility posy ETV
vector 102 IRTSystemXScenario.node[20].veinsmobility speed ETV
vector 103 IRTSystemXScenario.node[20].veinsmobility acceleration ETV
vector 104 IRTSystemXScenario.node[20].veinsmobility co2emission ETV
vector 105 IRTSystemXScenario.node[21].veinsmobility posx ETV
vector 106 IRTSystemXScenario.node[21].veinsmobility posy ETV
vector 107 IRTSystemXScenario.node[21].veinsmobility speed ETV
vector 108 IRTSystemXScenario.node[21].veinsmobility acceleration ETV
vector 109 IRTSystemXScenario.node[21].veinsmobility co2emission ETV
vector 110 IRTSystemXScenario.node[22].veinsmobility posx ETV
vector 111 IRTSystemXScenario.node[22].veinsmobility posy ETV
vector 112 IRTSystemXScenario.node[22].veinsmobility speed ETV
vector 113 IRTSystemXScenario.node[22].veinsmobility acceleration ETV
vector 114 IRTSystemXScenario.node[22].veinsmobility co2emission ETV
vector 115 IRTSystemXScenario.node[23].veinsmobility posx ETV
vector 116 IRTSystemXScenario.node[23].veinsmobility posy ETV
vector 117 IRTSystemXScenario.node[23].veinsmobility speed ETV
vector 118 IRTSystemXScenario.node[23].veinsmobility acceleration ETV
vector 119 IRTSystemXScenario.node[23].veinsmobility co2emission ETV
vector 120 IRTSystemXScenario.node[24].veinsmobility posx ETV
vector 121 IRTSystemXScenario.node[24].veinsmobility posy ETV
vector 122 IRTSystemXScenario.node[24].veinsmobility speed ETV
vector 123 IRTSystemXScenario.node[24].veinsmobility acceleration ETV
vector 124 IRTSystemXScenario.node[24].veinsmobility co2emission ETV
79	42820 1244 11745 36272 73 116 44 1.3066769347901 4.2990087857315 69.568826847924 120.85045343957
78	44064 1356 11745 36272 73 116 44 -0.09993287893245 2.0306512329658 3.0898879515271 5.3224567914667
77	45420 1270 11376 36272 72 116 45 3.86576207155 7.0193219163776 308.69007970644 2127.856342925
76	46690 1304 11023 36272 71 116 46 704.31656950881 748.24878240647 33486.229908062 24385372.504896
75	47994 1299 11023 36272 71 116 46 1941.3362237152 2181.2008212336 95334.25694805 197852215.77192
vector 125 IRTSystemXScenario.node[25].veinsmobility posx ETV
vector 126 IRTSystemXScenario.node[25].veinsmobility posy ETV
vector 127 IRTSystemXScenario.node[25].veinsmobility speed ETV
vector 128 IRTSystemXScenario.node[25].veinsmobility acceleration ETV
vector 129 IRTSystemXScenario.node[25].veinsmobility co2emission ETV
vector 130 IRTSystemXScenario.node[26].veinsmobility posx ETV
vector 131 IRTSystemXScenario.node[26].veinsmobility posy ETV
49	49743 2475 3116 53929 43 134 92 0.973 15.087761891667 275.87514975118 1704.6570311323
48	52218 2712 3116 53929 43 134 92 -4.5 2.2376385622844 5.7859666428538 190.86365373986
47	54930 2593 2942 53929 42 134 93 0 26.240582928335 1032.1348911541 13713.868937244
46	57523 2631 2776 53929 41 134 94 553.37023615595 994.47260366728 82079.760476068 73808984.707248
45	60154 2636 2776 53929 41 134 94 1875.9274036818 2248.7412413161 196496.34495805 412092733.79973
vector 132 IRTSystemXScenario.node[26].veinsmobility speed ETV
94	62853 1345 17928 55063 88 135 48 0.973 7.2568782679699 124.72947234077 464.83983864892
93	64198 1471 17928 55063 88 135 48 -4.3907407535115 2.0551014525676 9.3044512496514 48.810403637731
92	65669 1397 17476 55063 87 135 49 3.69503786134 13.124653573559 596.5338558028 7478.4007083415
91	67066 1427 17036 55063 86 135 50 296.77733903943 585.3320084115 21731.291776053 9855732.2604766
90	68493 1433 17036 55063 86 135 50 1949.0474515713 2008.1614927414 98810.65463499 195284787.41703
vector 133 IRTSystemXScenario.node[26].veinsmobility acceleration ETV
vector 134 IRTSystemXScenario.node[26].veinsmobility co2emission ETV
vector 135 IRTSystemXScenario.node[27].veinsmobility posx ETV
vector 136 IRTSystemXScenario.node[27].veinsmobility posy ETV
vector 137 IRTSystemXScenario.node[27].veinsmobility speed ETV
vector 138 IRTSystemXScenario.node[27].veinsmobility acceleration ETV
vector 139 IRTSystemXScenario.node[27].veinsmobility co2emission ETV
vector 140 IRTSystemXScenario.node[28].veinsmobility posx ETV
vector 141 IRTSystemXScenario.node[28].veinsmobility posy ETV
vector 142 IRTSystemXScenario.node[28].veinsmobility speed ETV
vector 143 IRTSystemXScenario.node[28].veinsmobility acceleration ETV
vector 144 IRTSystemXScenario.node[28].veinsmobility co2emission ETV
vector 145 IRTSystemXScenario.node[29].veinsmobility posx ETV
vector 146 IRTSystemXScenario.node[29].veinsmobility posy ETV
vector 147 IRTSystemXScenario.node[29].veinsmobility speed ETV
54	70904 2887 3866 73561 47 153 107 0.973 12.466124799167 270.13649661775 1261.1485769501
53	73791 3208 3866 73561 47 153 107 -4.5 2.1489255207567 4.1042057970993 130.5562001335
52	76999 3046 3659 73561 46 153 108 4.2252894673828 22.307351508194 1162.3034876805 14199.477156548
51	80045 3074 3456 73561 45 153 109 296.80578152733 1021.7059398165 80051.3885447 63984907.802987
50	83119 3070 3456 73561 45 153 109 1930.1584197359 2287.742533098 228176.42163634 479124742.56578
vector 148 IRTSystemXScenario.node[29].veinsmobility acceleration ETV
vector 149 IRTSystemXScenario.node[29].veinsmobility co2emission ETV
vector 150 IRTSystemXScenario.node[30].veinsmobility posx ETV
vector 151 IRTSystemXScenario.node[30].veinsmobility posy ETV
vector 152 IRTSystemXScenario.node[30].veinsmobility speed ETV
vector 153 IRTSystemXScenario.node[30].veinsmobility acceleration ETV
vector 154 IRTSystemXScenario.node[30].veinsmobility co2emission ETV
9	86654 4064 88 83096 7 162 156 0.973 14.511083122989 385.59294821481 1694.7411356811
8	90718 4519 88 83096 7 162 156 -4.498930980945 2.2452459055162 10.27385581186 140.81357289919
7	95237 4193 65 83096 6 162 157 4.0030390066499 22.884866407972 1792.2453498799 22564.038100384
6	99430 4222 42 83096 5 162 158 296.55542284981 999.26000494801 112615.30962363 93423745.89821
5	103652 4211 42 83096 5 162 158 1875.0267873714 2296.5576808854 334344.89159778 709687359.82513
vector 155 IRTSystemXScenario.node[31].veinsmobility posx ETV
vector 156 IRTSystemXScenario.node[31].veinsmobility posy ETV
vector 157 IRTSystemXScenario.node[31].veinsmobility speed ETV
vector 158 IRTSystemXScenario.node[31].veinsmobility acceleration ETV
vector 159 IRTSystemXScenario.node[31].veinsmobility co2emission ETV
69	108189 2993 7048 87563 59 166 108 0.973 7.9725298308834 207.54554098809 553.48811647915
68	111182 3267 7048 87563 59 166 108 -4.4095617462961 2.206162849335 10.264659919805 67.464763929051
67	114449 3042 6714 87563 58 166 109 0 14.373488571284 912.49642465289 8245.287996828
66	117491 3120 6392 87563 57 166 110 857.7566103524 1091.2777973444 104401.00007213 99436270.849022
65	120611 3118 6392 87563 57 166 110 1393.9311875246 2177.429860163 205269.29998042 389636793.19308
vector 160 IRTSystemXScenario.node[32].veinsmobility posx ETV
vector 161 IRTSystemXScenario.node[32].veinsmobility posy ETV
vector 162 IRTSystemXScenario.node[32].veinsmobility speed ETV
vector 163 IRTSystemXScenario.node[32].veinsmobility acceleration ETV
vector 164 IRTSystemXScenario.node[32].veinsmobility co2emission ETV
24	124055 3942 610 96216 19 174 156 0.973 14.544019287584 349.52256723212 1661.8795600786
23	127997 4190 610 96216 19 174 156 -4.5 2.3308638865802 5.3482869349491 235.8090515593
22	132187 3966 561 96216 18 174 157 0 24.92777669301 1203.7117823166 13378.755213468
21	136153 4425 512 96216 17 174 158 755.95751561543 998.88692501735 143485.35256008 131176485.54245
20	140578 4428 512 96216 17 174 158 1493.3592962126 2377.6839922015 310187.99076295 618540282.98834
89	145006 2607 15783 98441 83 176 94 0.973 14.030538201715 357.60562465885 2459.9113878164
88	147613 2825 15783 98441 83 176 94 -4.5 2.2950952616264 19.186433828642 220.56079255186
87	150438 2727 15352 98441 82 176 95 4.0711300225884 23.334926675166 1224.2697494974 18057.013132293
86	153165 2754 14917 98441 81 176 96 751.05766638547 1229.359971052 99305.091435934 104532483.85195
85	155919 2749 14917 98441 81 176 96 2174.5039076606 2546.7216408762 224144.17393476 524670111.95891
vector 165 IRTSystemXScenario.node[33].veinsmobility posx ETV
vector 166 IRTSystemXScenario.node[33].veinsmobility posy ETV
34	158792 3901 1278 101633 29 179 151 0.973 12.220733404574 317.67067905582 1328.748664534
33	162693 4334 1278 101633 29 179 151 -3.7821920065058 2.1771160680312 4.5671688550819 158.27981676297
32	167027 4107 1183 101633 28 179 152 0 23.051045446756 1106.262218542 11515.065412326
31	171134 4302 1088 101633 27 179 153 755.93850493536 999.9007602944 139234.81051994 127623317.48005
30	175436 4311 1088 101633 27 179 153 1727.0229398482 2379.818728547 307732.05626342 625135908.44719
vector 167 IRTSystemXScenario.node[33].veinsmobility speed ETV
vector 168 IRTSystemXScenario.node[33].veinsmobility acceleration ETV
vector 169 IRTSystemXScenario.node[33].veinsmobility co2emission ETV
vector 170 IRTSystemXScenario.node[34].veinsmobility posx ETV
vector 171 IRTSystemXScenario.node[34].veinsmobility posy ETV
vector 172 IRTSystemXScenario.node[34].veinsmobility speed ETV
vector 173 IRTSystemXScenario.node[34].veinsmobility acceleration ETV
vector 174 IRTSystemXScenario.node[34].veinsmobility co2emission ETV
129	180275 1821 43571 112862 124 190 67 0.973 13.300863765435 227.97895391426 1403.2547268851
128	182096 1965 43571 112862 124 190 67 -4.4770113839878 2.1927926195297 8.8709807298162 181.36306141846
127	184061 1908 42610 112862 123 190 68 0 20.57606852157 720.23702451997 10565.885792744
126	185969 2073 41661 112862 122 190 69 553.36655636552 1176.0042155765 56187.107630424 49119067.45768
125	188042 2065 41661 112862 122 190 69 2148.813662271 2264.5913800003 152577.70251426 337468187.1972
vector 175 IRTSystemXScenario.node[35].veinsmobility posx ETV
vector 176 IRTSystemXScenario.node[35].veinsmobility posy ETV
vector 177 IRTSystemXScenario.node[35].veinsmobility speed ETV
vector 178 IRTSystemXScenario.node[35].veinsmobility acceleration ETV
vector 179 IRTSystemXScenario.node[35].veinsmobility co2emission ETV
vector 180 IRTSystemXScenario.node[36].veinsmobility posx ETV
vector 181 IRTSystemXScenario.node[36].veinsmobility posy ETV
vector 182 IRTSystemXScenario.node[36].veinsmobility speed ETV
vector 183 IRTSystemXScenario.node[36].veinsmobility acceleration ETV
vector 184 IRTSystemXScenario.node[36].veinsmobility co2emission ETV
39	190759 4171 1696 126214 33 203 171 0.973 8.5449916327059 317.20634022249 982.7641697197
38	194930 4261 1696 126214 33 203 171 -4.5 2.2731581991722 4.7450039164158 202.1414348061
37	199191 4059 1588 126214 32 203 172 0 14.682010107356 1057.7373756015 10958.382477405
36	203250 4933 1472 126214 31 203 173 637.84958698728 874.44826407752 132182.24575347 102242372.08643
35	208183 4928 1472 126214 31 203 173 1306.6188504446 2096.9253158336 278558.31315138 459398722.6584
64	213111 3718 5830 126214 55 203 149 0.973 12.711776801958 332.08057848197 1457.7381098129
63	216829 3841 5830 126214 55 203 149 -4.5 2.3554076479257 3.9340587170607 207.50729095112
62	220670 3663 5557 126214 54 203 150 0 21.69611984829 1162.3851879939 14885.408798755
61	224333 4326 5280 126214 53 203 151 343.40323718306 994.47991000939 103039.36757472 76346446.791106
60	228659 4283 5280 126214 53 203 151 1886.6521759671 2295.9044566551 330823.81443706 726417475.26226
vector 185 IRTSystemXScenario.node[37].veinsmobility posx ETV
vector 186 IRTSystemXScenario.node[37].veinsmobility posy ETV
vector 187 IRTSystemXScenario.node[37].veinsmobility speed ETV
vector 188 IRTSystemXScenario.node[37].veinsmobility acceleration ETV
vector 189 IRTSystemXScenario.node[37].veinsmobility co2emission ETV
119	233268 3047 29850 132755 109 210 102 0.973 10.706478979909 209.20065051987 751.73873778938
118	236315 3293 29850 132755 109 210 102 -4.5 2.1519242622471 3.7871134384512 83.498239144956
117	239608 3119 29050 132755 108 210 103 3.2123563340143 18.83052485831 855.86614735266 8395.8106671424
116	242727 3149 28254 132755 107 210 104 755.94032627611 999.70981724058 92094.860669545 82415273.49493
115	245876 3143 28254 132755 107 210 104 1881.8103202711 2430.0551214411 227339.37156135 500012298.29589
vector 190 IRTSystemXScenario.node[38].veinsmobility posx ETV
vector 191 IRTSystemXScenario.node[38].veinsmobility posy ETV
vector 192 IRTSystemXScenario.node[38].veinsmobility speed ETV
114	249206 3277 27559 137811 106 216 111 0.973 11.696061972574 271.29419744009 1101.2603280053
113	252483 3595 27559 137811 106 216 111 -4.4261571824481 2.1854287920333 8.4822141631562 114.6942243413
112	256078 3387 26852 137811 105 216 112 3.7727413968247 19.622146088803 1229.7594459132 14891.734476974
111	259465 3413 26141 137811 104 216 113 300.10952638435 1225.7376650041 97365.578736875 92583583.756944
110	262878 3418 26141 137811 104 216 113 2178.9381115025 2539.5441649498 261136.0141558 604551985.64691
vector 193 IRTSystemXScenario.node[38].veinsmobility acceleration ETV
vector 194 IRTSystemXScenario.node[38].veinsmobility co2emission ETV
vector 195 IRTSystemXScenario.node[39].veinsmobility posx ETV
vector 196 IRTSystemXScenario.node[39].veinsmobility posy ETV
vector 197 IRTSystemXScenario.node[39].veinsmobility speed ETV
vector 198 IRTSystemXScenario.node[39].veinsmobility acceleration ETV
vector 199 IRTSystemXScenario.node[39].veinsmobility co2emission ETV
vector 200 IRTSystemXScenario.node[40].veinsmobility posx ETV
vector 201 IRTSystemXScenario.node[40].veinsmobility posy ETV
169	266885 1382 103716 147029 181 227 47 0.973 10.830737491939 141.98209511527 692.3278889998
168	268267 1521 103716 147029 181 227 47 -4.5 2.0076227948722 2.8283583383609 102.62759391879
167	269788 1485 102735 147029 180 227 48 3.9565102757593 18.358779525791 567.5933828054 7801.1235762511
166	271273 1510 101633 147029 179 227 49 762.88635440554 1184.3721343885 50244.236688366 52583907.72954
165	272783 1513 101633 147029 179 227 49 2150.0205248073 2285.5439190527 108074.50745858 238469079.43861
vector 202 IRTSystemXScenario.node[40].veinsmobility speed ETV
vector 203 IRTSystemXScenario.node[40].veinsmobility acceleration ETV
vector 204 IRTSystemXScenario.node[40].veinsmobility co2emission ETV
vector 205 IRTSystemXScenario.node[41].veinsmobility posx ETV
vector 206 IRTSystemXScenario.node[41].veinsmobility posy ETV
104	274622 4105 20993 152726 95 233 139 0.973 13.759570395295 358.54251362786 1522.0614269616
103	278727 4496 20993 152726 95 233 139 -3.2544440808531 2.1665715851635 18.778032360868 85.00191609025
102	283223 4239 20500 152726 94 233 140 0 22.703362106884 1579.2058335037 25441.997168455
101	287462 4272 20023 152726 93 233 141 634.51535669404 871.88748823667 104879.37249002 79033934.839622
100	291734 4268 20023 152726 93 233 141 577.81082679603 1854.9567148492 202412.17952054 305547987.04082
vector 207 IRTSystemXScenario.node[41].veinsmobility speed ETV
189	296065 832 130919 153797 208 234 27 1.2747552601856 7.1342922695414 59.263306372869 196.22938688394
188	296897 890 130919 153797 208 234 27 -0.068654915357474 2.083046413837 7.9782825503292 13.837238917682
187	297787 861 130021 153797 207 234 28 4.208163899287 12.200529140913 211.87650284186 1928.6830494597
186	298648 894 129107 153797 206 234 29 1120.8650654117 1173.0676871073 33312.983779847 38274499.926169
185	299542 896 129107 153797 206 234 29 2116.9708925786 2260.3173122338 62813.377909724 136098463.2383
vector 208 IRTSystemXScenario.node[41].veinsmobility acceleration ETV
vector 209 IRTSystemXScenario.node[41].veinsmobility co2emission ETV
vector 210 IRTSystemXScenario.node[42].veinsmobility posx ETV
vector 211 IRTSystemXScenario.node[42].veinsmobility posy ETV
vector 212 IRTSystemXScenario.node[42].veinsmobility speed ETV
vector 213 IRTSystemXScenario.node[42].veinsmobility acceleration ETV
vector 214 IRTSystemXScenario.node[42].veinsmobility co2emission ETV
134	300903 3024 56060 164022 136 244 109 0.973 7.7111642664379 186.51436226689 455.30571023497
133	303927 3136 56060 164022 136 244 109 -4.4782973758992 2.6 3.7904132523235 85.116920032182
132	307063 2971 55063 164022 135 244 110 0 13.203861101569 697.75965367891 6273.1862566791
131	310034 3386 53929 164022 134 244 111 667.1200643538 919.19903181043 95855.254147936 83191051.422911
130	313420 3386 53929 164022 134 244 111 1482.0430367568 1722.9901830592 172622.71005627 269117756.69499
174	316806 1834 109772 167002 187 247 61 0.973 13.108650360285 174.05825924967 1020.2110342847
173	318640 1967 109772 167002 187 247 61 -4.5 2.2560888468055 4.1962803785135 108.16570594045
172	320607 1913 108750 167002 186 247 62 4.156991886019 22.543976428044 637.43742794801 7861.8917856627
171	322520 1944 107684 167002 185 247 63 702.53748006568 1018.0972669981 52334.537840117 44453181.032562
170	324464 1945 107684 167002 185 247 63 1949.8863059102 2280.4478877956 135262.03715908 290937817.08794
84	326409 4505 14117 167927 79 248 170 0.973 14.004281692427 458.06004361159 2533.0385408953
83	330914 4823 14117 167927 79 248 170 -4.4994360668365 2.2934982947959 18.630292464022 316.44049436757
82	335737 4563 13703 167927 78 248 171 0 22.843465385147 1431.5348831675 18116.356707752
81	340300 5016 13265 167927 77 248 172 751.09464917222 999.2764512484 157302.59422974 144382204.57939
80	345316 5025 13265 167927 77 248 172 1370.5397646331 2219.8287886628 313943.57732874 585363809.20546
vector 215 IRTSystemXScenario.node[43].veinsmobility posx ETV
vector 216 IRTSystemXScenario.node[43].veinsmobility posy ETV
vector 217 IRTSystemXScenario.node[43].veinsmobility speed ETV
vector 218 IRTSystemXScenario.node[43].veinsmobility acceleration ETV
vector 219 IRTSystemXScenario.node[43].veinsmobility co2emission ETV
184	350667 1930 121998 178419 199 262 64 0.973 8.8796428506261 139.03820961936 456.54193659363
183	352597 2111 121998 178419 199 262 64 -4.3901784209694 2.1006982652703 4.6749536332996 64.393942806054
182	354708 2005 120943 178419 198 262 65 3.9746803454134 14.536015924716 580.44821896262 5422.5923667281
181	356713 2042 119884 178419 197 262 66 964.64841777981 1177.7708410104 69650.804941632 73724804.774538
180	358755 2037 119884 178419 197 262 66 2157.1214739983 2423.282928109 149978.63975844 341386035.47781
vector 220 IRTSystemXScenario.node[44].veinsmobility posx ETV
vector 221 IRTSystemXScenario.node[44].veinsmobility posy ETV
vector 222 IRTSystemXScenario.node[44].veinsmobility speed ETV
vector 223 IRTSystemXScenario.node[44].veinsmobility acceleration ETV
vector 224 IRTSystemXScenario.node[44].veinsmobility co2emission ETV
vector 225 IRTSystemXScenario.node[45].veinsmobility posx ETV
vector 226 IRTSystemXScenario.node[45].veinsmobility posy ETV
vector 227 IRTSystemXScenario.node[45].veinsmobility speed ETV
vector 228 IRTSystemXScenario.node[45].veinsmobility acceleration ETV
vector 229 IRTSystemXScenario.node[45].veinsmobility co2emission ETV
109	361444 5205 23091 186365 99 271 173 0.973 7.5109343660699 351.41820331714 953.52420296809
108	366649 5670 23091 186365 99 271 173 -4.2810191014895 2.2058464349271 7.9722494913292 92.164503625444
107	372319 5292 22533 186365 98 271 174 4.1258911495523 12.204001291724 1774.2531665578 19072.373787481
106	377611 5327 21983 186365 97 271 175 295.87328906009 865.45245290421 97858.241232023 60421535.999237
105	382938 5326 21983 186365 97 271 175 1482.9852291696 2268.5044755622 321397.96880969 600933339.10541
vector 230 IRTSystemXScenario.node[46].veinsmobility posx ETV
vector 231 IRTSystemXScenario.node[46].veinsmobility posy ETV
vector 232 IRTSystemXScenario.node[46].veinsmobility speed ETV
vector 233 IRTSystemXScenario.node[46].veinsmobility acceleration ETV
vector 234 IRTSystemXScenario.node[46].veinsmobility co2emission ETV
179	388590 2530 115852 192565 193 278 86 0.973 13.363717332831 293.65487550366 1682.9267977056
178	391120 2762 115852 192565 193 278 86 -4.5 2.0115608684276 4.7557308430642 208.97667019628
177	393882 2687 114878 192565 192 278 87 1.127133290121 23.227622869992 1119.2601148485 16833.282462074
176	396569 2719 113904 192565 191 278 88 137.95829774746 1146.4494295505 57217.833905702 46445251.956422
175	399288 2718 113904 192565 191 278 88 2149.4106572748 2319.7064035891 197225.1815597 442221665.62735
vector 235 IRTSystemXScenario.node[47].veinsmobility posx ETV
vector 236 IRTSystemXScenario.node[47].veinsmobility posy ETV
vector 237 IRTSystemXScenario.node[47].veinsmobility speed ETV
vector 238 IRTSystemXScenario.node[47].veinsmobility acceleration ETV
vector 239 IRTSystemXScenario.node[47].veinsmobility co2emission ETV
199	402332 1876 143517 197953 223 284 62 0.973 7.5896221993921 157.27352716147 572.81503025923
198	404208 2026 143517 197953 223 284 62 -4.5 2.5035716967122 8.3443083958636 73.00801431713
197	406234 1943 142671 197953 222 284 63 4.020714057077 12.437939331768 731.77971479112 8705.0473257116
196	408177 1980 141837 197953 221 284 64 296.56060442866 537.43593557795 23196.660374577 8751058.7251527
195	410157 1975 141837 197953 221 284 64 2019.1505037246 2295.9292924858 139938.57815235 306490526.21697
99	412132 5571 19179 199870 91 286 196 0.973 12.086339908331 411.5642796798 1385.3250587294
98	417703 6180 19179 199870 91 286 196 -4.4817857413211 2.0979072950245 7.908245373605 153.39114668516
97	423883 5779 18751 199870 90 286 197 0 19.424778396572 1842.5945299676 20612.558444637
96	429662 5812 18315 199870 89 286 198 296.80634305438 1261.7939441383 171857.23680619 164142411.20035
95	435474 5824 18315 199870 89 286 198 1930.2488077695 2734.4401250446 438919.36300077 985405723.25612
vector 240 IRTSystemXScenario.node[48].veinsmobility posx ETV
vector 241 IRTSystemXScenario.node[48].veinsmobility posy ETV
74	441422 5598 8363 200846 63 287 225 0.973 17.833603873949 571.42997471812 3272.8044034325
73	447020 5684 8363 200846 63 287 225 -4.5 2.35506391002 24.710192572373 329.03645017146
72	452704 5454 7993 200846 62 287 226 0 28.755671539895 1763.8658296548 25195.415328987
71	458158 6581 7647 200846 61 287 227 296.17173812448 871.69955997313 158288.07807677 115797315.46623
70	464739 6638 7647 200846 61 287 227 1119.0557338686 2013.0810656061 377370.48553784 643304019.81646
vector 242 IRTSystemXScenario.node[48].veinsmobility speed ETV
vector 243 IRTSystemXScenario.node[48].veinsmobility acceleration ETV
vector 244 IRTSystemXScenario.node[48].veinsmobility co2emission ETV
164	471579 3502 94010 203496 172 290 119 0.973 9.7931535901161 324.76529865689 1404.7534702398
163	475081 3836 94010 203496 172 290 119 -4.499283598286 2.356097045315 5.7928943864366 236.9700176897
162	478917 3632 92935 203496 171 290 120 0 16.3854133679 1388.2343108354 18346.419884701
161	482549 3735 91888 203496 170 290 121 296.50610087314 1008.5265140971 71625.57663485 48752860.580248
160	486284 3733 91888 203496 170 290 121 2019.2274654213 2429.9278924905 273775.33609793 620972954.44589
vector 245 IRTSystemXScenario.node[49].veinsmobility posx ETV
vector 246 IRTSystemXScenario.node[49].veinsmobility posy ETV
149	490141 4176 74700 205803 154 293 140 0.973 7.6408462718618 241.33930146508 535.51122071322
148	494317 4618 74700 205803 154 293 140 -4.4845737377618 2.0898524086596 3.9260090401443 65.716133663073
147	498935 4336 73561 205803 153 293 141 0 13.139273179251 1030.9020682521 8912.9010315404
146	503271 4364 72438 205803 152 293 142 634.56390999452 945.67673617559 118120.82793858 100351952.63555
145	507635 4361 72438 205803 152 293 142 1482.5551699129 1868.9807220419 239777.86023998 407212590.43315
vector 247 IRTSystemXScenario.node[49].veinsmobility speed ETV
vector 248 IRTSystemXScenario.node[49].veinsmobility acceleration ETV
vector 249 IRTSystemXScenario.node[49].veinsmobility co2emission ETV
vector 250 IRTSystemXScenario.node[50].veinsmobility posx ETV
vector 251 IRTSystemXScenario.node[50].veinsmobility posy ETV
vector 252 IRTSystemXScenario.node[50].veinsmobility speed ETV
vector 253 IRTSystemXScenario.node[50].veinsmobility acceleration ETV
vector 254 IRTSystemXScenario.node[50].veinsmobility co2emission ETV
vector 255 IRTSystemXScenario.node[51].veinsmobility posx ETV
vector 256 IRTSystemXScenario.node[51].veinsmobility posy ETV
vector 257 IRTSystemXScenario.node[51].veinsmobility speed ETV
219	512711 1410 175835 215390 259 306 48 0.973 8.273882382256 121.2036992596 426.36105426051
218	514121 1517 175835 215390 259 306 48 -4.475365201447 2.173371080017 10.241170615403 87.277084119708
217	515638 1462 174979 215390 258 306 49 0 14.304969814237 489.60699504882 6244.0166068285
216	517100 1539 174151 215390 257 306 50 305.3495089147 701.59780878661 29162.261912595 17876018.660479
215	518639 1540 174151 215390 257 306 50 1864.1902394961 2001.839381986 97098.441336947 188627357.36503
vector 258 IRTSystemXScenario.node[51].veinsmobility acceleration ETV
vector 259 IRTSystemXScenario.node[51].veinsmobility co2emission ETV
124	520318 5542 36272 216262 116 307 192 0.973 13.286170187037 487.87669023181 2521.6557458931
123	525860 5992 36272 216262 116 307 192 -4.5 2.2256874991188 18.951104100358 283.47858186042
122	531852 5692 35235 216262 115 307 193 0 21.598691790827 1604.3450561152 20298.104395773
121	537544 5915 34186 216262 114 307 194 761.88960370491 993.95116542211 173231.60814935 155392148.43124
120	543459 5931 34186 216262 114 307 194 1062.1307759028 2206.2002796124 325751.11668734 568736055.8278
vector 260 IRTSystemXScenario.node[52].veinsmobility posx ETV
vector 261 IRTSystemXScenario.node[52].veinsmobility posy ETV
vector 262 IRTSystemXScenario.node[52].veinsmobility speed ETV
vector 263 IRTSystemXScenario.node[52].veinsmobility acceleration ETV
vector 264 IRTSystemXScenario.node[52].veinsmobility co2emission ETV
234	549716 1280 191700 225444 277 319 43 0.973 13.579275142898 143.98597818037 1006.1024387271
233	550996 1392 191700 225444 277 319 43 -4.5 2.0837745350343 4.7522382671583 102.03758720907
232	552388 1356 190831 225444 276 319 44 3.9418675185105 23.225722688338 479.85225156588 6239.3478988716
231	553744 1390 189930 225444 275 319 45 755.93821272286 985.58286277738 37095.600953074 30848420.219727
230	555134 1391 189930 225444 275 319 45 2180.5624516189 2427.452738888 102732.89463015 234866130.59802
vector 265 IRTSystemXScenario.node[53].veinsmobility posx ETV
vector 266 IRTSystemXScenario.node[53].veinsmobility posy ETV
59	556649 7448 4780 226167 51 320 270 0.973 15.323444725336 635.72655116616 2809.6613230161
58	564097 8226 4780 226167 51 320 270 -4.461979542492 2.1486039984343 19.420810806805 269.04151785308
57	572323 7745 4544 226167 50 320 271 0 23.520450936566 2424.7516100299 32014.913692537
56	580068 7930 4296 226167 49 320 272 648.60640691071 1229.826371399 257690.25563416 248473466.58212
55	587998 7924 4296 226167 49 320 272 564.83002399553 2545.4548113072 491972.45347877 957765256.03601
244	595922 938 202661 226167 289 320 32 0.973 7.992285749331 84.769765814389 334.06221117847
243	596860 1021 202661 226167 289 320 32 -4.5 2.0797737573553 4.979859288488 48.758239560001
242	597881 1020 201794 226167 288 320 33 3.3556595707396 14.066321130045 351.94179500605 4083.4895734353
241	598901 1051 200846 226167 287 320 34 1030.6466221341 1225.8534161464 38321.959936938 43403817.09645
240	599952 1050 200846 226167 287 320 34 2357.8338066435 2540.2469662707 82922.659908472 202346640.39254
vector 267 IRTSystemXScenario.node[53].veinsmobility speed ETV
vector 268 IRTSystemXScenario.node[53].veinsmobility acceleration ETV
vector 269 IRTSystemXScenario.node[53].veinsmobility co2emission ETV
vector 270 IRTSystemXScenario.node[54].veinsmobility posx ETV
vector 271 IRTSystemXScenario.node[54].veinsmobility posy ETV
vector 272 IRTSystemXScenario.node[54].veinsmobility speed ETV
vector 273 IRTSystemXScenario.node[54].veinsmobility acceleration ETV
vector 274 IRTSystemXScenario.node[54].veinsmobility co2emission ETV
vector 275 IRTSystemXScenario.node[55].veinsmobility posx ETV
vector 276 IRTSystemXScenario.node[55].veinsmobility posy ETV
vector 277 IRTSystemXScenario.node[55].veinsmobility speed ETV
139	601717 5319 61834 237382 142 333 192 0.973 7.8180366698764 321.35893574674 750.29111547805
138	607036 5501 61834 237382 142 333 192 -4.5 2.2232419710644 8.9769935796387 82.906298622022
137	612537 5192 60809 237382 141 333 193 0 12.785920483631 1279.4527335736 12645.756592797
136	617729 5963 59756 237382 140 333 194 314.57198119182 915.38468635732 145350.02949841 113231109.00566
135	623692 5959 59756 237382 140 333 194 1485.2829210659 1998.2234500745 321408.65177032 538787862.94304
vector 278 IRTSystemXScenario.node[55].veinsmobility acceleration ETV
vector 279 IRTSystemXScenario.node[55].veinsmobility co2emission ETV
vector 280 IRTSystemXScenario.node[56].veinsmobility posx ETV
vector 281 IRTSystemXScenario.node[56].veinsmobility posy ETV
vector 282 IRTSystemXScenario.node[56].veinsmobility speed ETV
vector 283 IRTSystemXScenario.node[56].veinsmobility acceleration ETV
vector 284 IRTSystemXScenario.node[56].veinsmobility co2emission ETV
154	630116 5317 80918 247920 160 344 185 0.973 10.787491526414 325.87530888223 953.44657939397
153	635433 5697 80918 247920 160 344 185 -4.5 2.2151943960404 2.6202171105636 154.34143978144
152	641130 5386 79871 247920 159 344 186 0 17.881221576578 1143.5160513868 9041.7078119818
151	646516 5754 78796 247920 158 344 187 667.09773219523 1145.3726859842 175181.50139049 165875670.56969
150	652270 5765 78796 247920 158 344 187 1482.1557722339 2267.2161259846 342325.66746416 637616221.51583
209	658035 3335 154867 252365 235 348 114 0.973 15.301820496582 299.01162588529 1636.1627931647
208	661370 3736 154867 252365 235 348 114 -4.4902670732508 2.2509771282895 2.1516549613319 171.65375734295
207	665106 3557 153797 252365 234 348 115 0.77207835429532 25.158901444369 1121.1902363162 13224.403479011
206	668663 3586 152726 252365 233 348 116 641.83558849851 1222.2343267375 94603.775190748 81250816.241597
205	672249 3580 152726 252365 233 348 116 1587.4527805452 2206.9685877956 230385.44686026 462119326.19608
194	675829 4047 138633 253451 217 349 133 0.973 13.837962786482 330.27687105504 1524.7368663432
193	679876 4399 138633 253451 217 349 133 -4.5 2.352926850256 5.1971061621797 115.24184934818
192	684275 4138 137811 253451 216 349 134 3.9933333021674 24.643796075858 1611.9191693543 21690.769923844
191	688413 4171 137001 253451 215 349 135 300.50989820133 994.47973437057 101842.03112302 85213302.561031
190	692584 4169 137001 253451 215 349 135 1498.8084333689 2282.8851933483 269009.85403236 543607954.20194
vector 285 IRTSystemXScenario.node[57].veinsmobility posx ETV
vector 286 IRTSystemXScenario.node[57].veinsmobility posy ETV
vector 287 IRTSystemXScenario.node[57].veinsmobility speed ETV
vector 288 IRTSystemXScenario.node[57].veinsmobility acceleration ETV
vector 289 IRTSystemXScenario.node[57].veinsmobility co2emission ETV
vector 290 IRTSystemXScenario.node[58].veinsmobility posx ETV
vector 291 IRTSystemXScenario.node[58].veinsmobility posy ETV
vector 292 IRTSystemXScenario.node[58].veinsmobility speed ETV
vector 293 IRTSystemXScenario.node[58].veinsmobility acceleration ETV
vector 294 IRTSystemXScenario.node[58].veinsmobility co2emission ETV
vector 295 IRTSystemXScenario.node[59].veinsmobility posx ETV
vector 296 IRTSystemXScenario.node[59].veinsmobility posy ETV
vector 297 IRTSystemXScenario.node[59].veinsmobility speed ETV
vector 298 IRTSystemXScenario.node[59].veinsmobility acceleration ETV
vector 299 IRTSystemXScenario.node[59].veinsmobility co2emission ETV
159	697731 5739 87563 270949 166 368 203 0.973 9.9984608598385 360.76166989636 1010.4666184349
158	703470 6029 87563 270949 166 368 203 -4.4928571664682 2.275068335129 12.34570568912 151.47068111014
157	709499 5695 86420 270949 165 368 204 0 16.160441172822 1289.4808406767 10853.401737118
156	715194 6319 85285 270949 164 368 205 844.17294211303 1039.1724562408 192181.62437233 180877472.77244
155	721513 6321 85285 270949 164 368 205 1324.3652341013 2423.9071446198 383518.28412933 744662690.76666
vector 300 IRTSystemXScenario.node[60].veinsmobility posx ETV
vector 301 IRTSystemXScenario.node[60].veinsmobility posy ETV
vector 302 IRTSystemXScenario.node[60].veinsmobility speed ETV
vector 303 IRTSystemXScenario.node[60].veinsmobility acceleration ETV
vector 304 IRTSystemXScenario.node[60].veinsmobility co2emission ETV
vector 305 IRTSystemXScenario.node[61].veinsmobility posx ETV
vector 306 IRTSystemXScenario.node[61].veinsmobility posy ETV
vector 307 IRTSystemXScenario.node[61].veinsmobility speed ETV
vector 308 IRTSystemXScenario.node[61].veinsmobility acceleration ETV
vector 309 IRTSystemXScenario.node[61].veinsmobility co2emission ETV
259	728486 2460 216262 289294 307 388 82 0.973 9.182910767047 221.4836365453 994.2999914923
258	730946 2684 216262 289294 307 388 82 -4.4895955836074 2.3516635326296 11.174395301399 118.20798178517
257	733630 2566 215390 289294 306 388 83 4.0019912493452 15.220158854157 884.10239269265 10094.674932021
256	736196 2592 214510 289294 305 388 84 638.47587587898 865.45860190535 59263.360034227 42144327.09474
255	738788 2591 214510 289294 305 388 84 1482.9840069425 1936.7474805884 138150.91890206 229118866.09837
vector 310 IRTSystemXScenario.node[62].veinsmobility posx ETV
vector 311 IRTSystemXScenario.node[62].veinsmobility posy ETV
vector 312 IRTSystemXScenario.node[62].veinsmobility speed ETV
vector 313 IRTSystemXScenario.node[62].veinsmobility acceleration ETV
vector 314 IRTSystemXScenario.node[62].veinsmobility co2emission ETV
vector 315 IRTSystemXScenario.node[63].veinsmobility posx ETV
vector 316 IRTSystemXScenario.node[63].veinsmobility posy ETV
vector 317 IRTSystemXScenario.node[63].veinsmobility speed ETV
vector 318 IRTSystemXScenario.node[63].veinsmobility acceleration ETV
vector 319 IRTSystemXScenario.node[63].veinsmobility co2emission ETV
304	742031 920 275906 300443 373 403 31 0.973 11.104050547589 155.51991123805 1097.6605929601
303	742951 994 275906 300443 373 403 31 -4.4535266979074 2.005262428131 15.177726358121 96.743143229456
302	743945 989 274851 300443 372 403 32 4.168315228079 19.431871798056 484.53724257757 8088.0323514907
301	744934 1019 273804 300443 371 403 33 762.92875956663 999.57216695475 29069.113688421 25815589.089971
300	745953 1015 273804 300443 371 403 33 2166.6437124112 2214.2866161055 72308.144104671 158444317.33431
214	746968 4536 164022 300443 244 403 160 0.973 17.190985029687 459.4308433716 2511.2321693002
213	751504 4790 164022 300443 244 403 160 -4.5 2.2243165084537 23.416954556663 188.11484797535
212	756294 4544 162916 300443 243 403 161 0 27.485606634915 1766.1827891896 32052.90293205
211	760838 5008 161838 300443 242 403 162 634.84512702569 872.06214914945 121236.51280643 91828364.17389
210	765846 5004 161838 300443 242 403 162 592.70930610063 2101.0994210819 252541.60445425 414210383.51511
vector 320 IRTSystemXScenario.node[64].veinsmobility posx ETV
vector 321 IRTSystemXScenario.node[64].veinsmobility posy ETV
vector 322 IRTSystemXScenario.node[64].veinsmobility speed ETV
vector 323 IRTSystemXScenario.node[64].veinsmobility acceleration ETV
vector 324 IRTSystemXScenario.node[64].veinsmobility co2emission ETV
224	771176 4022 181063 304052 265 408 144 0.973 8.9673397514835 255.84899506706 691.08215290229
223	775198 4245 181063 304052 265 408 144 -4.4226862371443 2.2030465168148 3.9368648754451 125.73773680988
222	779443 4022 180191 304052 264 408 145 0 14.347707083363 948.64320245453 8438.2268824438
221	783465 4508 179303 304052 263 408 146 876.2209861507 1177.7597269412 141835.26687961 138602750.62093
220	787973 4517 179303 304052 263 408 146 1501.9030194937 2272.9754309554 280042.4477888 543161255.02466
vector 325 IRTSystemXScenario.node[65].veinsmobility posx ETV
vector 326 IRTSystemXScenario.node[65].veinsmobility posy ETV
vector 327 IRTSystemXScenario.node[65].veinsmobility speed ETV
vector 328 IRTSystemXScenario.node[65].veinsmobility acceleration ETV
vector 329 IRTSystemXScenario.node[65].veinsmobility co2emission ETV
vector 330 IRTSystemXScenario.node[66].veinsmobility posx ETV
vector 331 IRTSystemXScenario.node[66].veinsmobility posy ETV
vector 332 IRTSystemXScenario.node[66].veinsmobility speed ETV
vector 333 IRTSystemXScenario.node[66].veinsmobility acceleration ETV
vector 334 IRTSystemXScenario.node[66].veinsmobility co2emission ETV
vector 335 IRTSystemXScenario.node[67].veinsmobility posx ETV
vector 336 IRTSystemXScenario.node[67].veinsmobility posy ETV
vector 337 IRTSystemXScenario.node[67].veinsmobility speed ETV
vector 338 IRTSystemXScenario.node[67].veinsmobility acceleration ETV
vector 339 IRTSystemXScenario.node[67].veinsmobility co2emission ETV
vector 340 IRTSystemXScenario.node[68].veinsmobility posx ETV
vector 341 IRTSystemXScenario.node[68].veinsmobility posy ETV
vector 342 IRTSystemXScenario.node[68].veinsmobility speed ETV
vector 343 IRTSystemXScenario.node[68].veinsmobility acceleration ETV
vector 344 IRTSystemXScenario.node[68].veinsmobility co2emission ETV
264	793794 3548 223179 327836 316 433 118 0.973 13.70830517897 336.43559367807 1675.9541293886
263	797342 3882 223179 327836 316 433 118 -4.5 2.2734299168433 10.859363148303 141.73331763921
262	801224 3670 222388 327836 315 433 119 3.9384760146864 23.661950044196 1555.0324938127 22103.599746401
261	804894 3704 221597 327836 314 433 120 295.97481728973 1074.9900423327 81629.248212235 65826807.818387
260	808598 3704 221597 327836 314 433 120 1952.1972559371 2418.499662099 265469.99320789 589415912.73769
239	812302 4182 196972 330987 283 436 154 0.973 16.279937094373 341.78145585683 1762.3686798378
238	816484 4314 196972 330987 283 436 154 -4.5 2.3591651510959 5.6637315054391 202.97376854616
237	820798 4142 196015 330987 282 436 155 0 25.887183941471 1102.5989391878 12872.347770999
236	824940 4823 195038 330987 281 436 156 756.28259378564 999.10568022449 142710.47730287 131366801.17277
235	829763 4825 195038 330987 281 436 156 1726.4255990155 2378.1215196929 310545.48237051 623928432.00013
144	834588 8138 68158 330987 148 436 289 0.973 10.137101646118 498.9134374403 1331.2986656996
143	842726 8541 68158 330987 148 436 289 -4.5 2.1465125323995 11.100332121875 128.30618203587
142	851267 8060 67092 330987 147 436 290 0 17.103795216094 1907.4361496515 22179.597522059
141	859327 8959 66006 330987 146 436 291 647.20437410753 999.86651561739 257567.50771455 229882074.55384
140	868286 8962 66006 330987 146 436 291 546.94124386576 2215.6820741752 462759.54587814 784837347.32998
vector 345 IRTSystemXScenario.node[69].veinsmobility posx ETV
vector 346 IRTSystemXScenario.node[69].veinsmobility posy ETV
vector 347 IRTSystemXScenario.node[69].veinsmobility speed ETV
vector 348 IRTSystemXScenario.node[69].veinsmobility acceleration ETV
vector 349 IRTSystemXScenario.node[69].veinsmobility co2emission ETV
229	877574 4854 186365 333967 271 439 169 0.973 6.3302938562 279.63490344374 608.00248878371
228	882428 5277 186365 333967 271 439 169 -4.4963587856269 2.6 5.6234929447838 109.62745671304
227	887705 4983 185376 333967 270 439 170 0 9.3782657359481 1043.1383937684 8020.7195135151
226	892688 5285 184403 333967 269 439 171 873.84086741674 1019.1542987518 159569.49342729 149231176.63172
225	897973 5263 184403 333967 269 439 171 1487.0343587207 2269.1880426916 308488.0011191 566214757.12469
254	903236 4274 211714 334944 301 440 140 0.973 5.2588020959431 234.46111881032 454.55299472332
253	907510 4650 211714 334944 301 440 140 -1.9319378722632 1.9437632548134 3.8406186413872 30.845146997718
252	912160 4356 210987 334944 300 440 141 4.0403329411506 9.6651235169348 1109.7653312808 8768.3650614831
251	916516 4373 210244 334944 299 440 142 637.81916820154 824.65455700355 100535.75152491 71538557.643629
250	920889 4377 210244 334944 299 440 142 1582.2608344339 2432.9383554664 279174.08956417 559284942.10583
vector 350 IRTSystemXScenario.node[70].veinsmobility posx ETV
vector 351 IRTSystemXScenario.node[70].veinsmobility posy ETV
vector 352 IRTSystemXScenario.node[70].veinsmobility speed ETV
vector 353 IRTSystemXScenario.node[70].veinsmobility acceleration ETV
vector 354 IRTSystemXScenario.node[70].veinsmobility co2emission ETV
294	925592 2730 261850 341714 358 448 91 0.973 8.8512728628253 240.01767891727 963.59877599449
293	928322 2984 261850 341714 358 448 91 -4.4925442225934 2.4195379074547 11.821783357258 100.037647447
292	931306 2844 260920 341714 357 448 92 3.9766042759144 15.798387633173 1067.9646776142 13376.545793283
291	934150 2866 259990 341714 356 448 93 343.19 1016.3462875155 64198.538491684 48097720.66763
290	937016 2874 259990 341714 356 448 93 2223.3051768654 2433.2080830817 216382.24400013 503990069.88326
vector 355 IRTSystemXScenario.node[71].veinsmobility posx ETV
vector 356 IRTSystemXScenario.node[71].veinsmobility posy ETV
279	940014 3481 238337 342602 334 449 116 0.973 14.073173071096 330.67418385936 1655.8101826885
278	943495 3794 238337 342602 334 449 116 -4.5 2.1932601855998 10.613244301953 193.62107968235
277	947289 3614 237382 342602 333 449 117 3.367783814503 22.352319458219 1322.1759801701 16753.328509516
276	950903 3647 236411 342602 332 449 118 317.22698000873 1183.9413960334 97062.837003244 87037682.961704
275	954550 3641 236411 342602 332 449 118 1933.312660247 2277.787884575 248436.8320971 524437183.79148
vector 357 IRTSystemXScenario.node[71].veinsmobility speed ETV
vector 358 IRTSystemXScenario.node[71].veinsmobility acceleration ETV
vector 359 IRTSystemXScenario.node[71].veinsmobility co2emission ETV
284	958393 3262 246821 345180 343 452 110 0.45899661682377 13.312212171119 231.74925627486 969.73266793889
283	961655 3578 246821 345180 343 452 110 -4.5 2.6 3.9425499092455 129.60117177135
282	965233 3438 245746 345180 342 452 111 0.091116155401174 21.401695872937 797.82710855848 7954.0948293572
281	968671 3454 244651 345180 341 452 112 756.00812205927 999.52849647262 104202.40973012 97525460.952211
280	972125 3459 244651 345180 341 452 112 1733.3502837503 2276.6118065174 225786.92814854 458082083.11728
vector 360 IRTSystemXScenario.node[72].veinsmobility posx ETV
vector 361 IRTSystemXScenario.node[72].veinsmobility posy ETV
vector 362 IRTSystemXScenario.node[72].veinsmobility speed ETV
vector 363 IRTSystemXScenario.node[72].veinsmobility acceleration ETV
vector 364 IRTSystemXScenario.node[72].veinsmobility co2emission ETV
vector 365 IRTSystemXScenario.node[73].veinsmobility posx ETV
vector 366 IRTSystemXScenario.node[73].veinsmobility posy ETV
vector 367 IRTSystemXScenario.node[73].veinsmobility speed ETV
vector 368 IRTSystemXScenario.node[73].veinsmobility acceleration ETV
vector 369 IRTSystemXScenario.node[73].veinsmobility co2emission ETV
vector 370 IRTSystemXScenario.node[74].veinsmobility posx ETV
vector 371 IRTSystemXScenario.node[74].veinsmobility posy ETV
vector 372 IRTSystemXScenario.node[74].veinsmobility speed ETV
vector 373 IRTSystemXScenario.node[74].veinsmobility acceleration ETV
vector 374 IRTSystemXScenario.node[74].veinsmobility co2emission ETV
vector 375 IRTSystemXScenario.node[75].veinsmobility posx ETV
vector 376 IRTSystemXScenario.node[75].veinsmobility posy ETV
vector 377 IRTSystemXScenario.node[75].veinsmobility speed ETV
vector 378 IRTSystemXScenario.node[75].veinsmobility acceleration ETV
vector 379 IRTSystemXScenario.node[75].veinsmobility co2emission ETV
344	976888 1462 324271 366939 430 479 50 0.973 14.833317809 207.7244280102 1564.9863581642
343	978350 1592 324271 366939 430 479 50 -4.5 2.2780328565347 4.6935964393536 149.39245343468
342	979942 1578 323104 366939 429 479 51 4.7556704278267 25.377380333526 701.67903441003 11494.888455475
341	981520 1604 321925 366939 428 479 52 751.3291878118 1183.7068959001 53476.111610967 56157358.909503
340	983124 1606 321925 366939 428 479 52 2149.5225606496 2285.6560934872 114826.58482872 253646647.95079
299	984730 3125 270026 367841 367 480 114 0.973 9.0777446684407 200.64470307111 542.18360918882
298	987855 3186 270026 367841 367 480 114 -4.5 2.6 4.8794931602321 100.37375891695
297	991041 3042 269107 367841 366 480 115 0 14.76999086711 736.95964047294 7447.528075877
296	994083 3583 268160 367841 365 480 116 634.63362370519 917.91240542463 92670.690243877 75295296.474956
295	997666 3587 268160 367841 365 480 116 1482.0430367395 1782.9625227214 181447.10536025 284840973.2856
vector 380 IRTSystemXScenario.node[76].veinsmobility posx ETV
vector 381 IRTSystemXScenario.node[76].veinsmobility posy ETV
vector 382 IRTSystemXScenario.node[76].veinsmobility speed ETV
vector 383 IRTSystemXScenario.node[76].veinsmobility acceleration ETV
vector 384 IRTSystemXScenario.node[76].veinsmobility co2emission ETV
269	1001579 4760 227743 371993 322 485 164 0.973 7.1936110473269 276.22257507651 614.50502167606
268	1006339 5101 227743 371993 322 485 164 -4.4519484634147 2.2006990071409 4.0022548413991 81.032097957935
267	1011440 4764 226974 371993 321 485 165 0 13.508838556407 1179.4204312469 10359.844707845
266	1016204 5128 226167 371993 320 485 166 638.1802709576 919.46536680014 132556.02650023 107687929.37871
265	1021332 5129 226167 371993 320 485 166 1485.2809405068 1927.6204404534 269906.23192056 441752559.68926
vector 385 IRTSystemXScenario.node[77].veinsmobility posx ETV
vector 386 IRTSystemXScenario.node[77].veinsmobility posy ETV
vector 387 IRTSystemXScenario.node[77].veinsmobility speed ETV
274	1026648 4587 232699 375199 328 489 162 0.973 9.6101703531457 348.36693720697 1299.9385928209
273	1031235 5021 232699 375199 328 489 162 -4.4685030234849 2.1980584776425 10.082046090729 193.27112395767
272	1036256 4785 231773 375199 327 489 163 0 16.908181974881 1299.9448928673 14440.317027749
271	1041041 5069 230859 375199 326 489 164 305.73196353074 875.33558773825 114381.93127635 82891679.851182
270	1046110 5069 230859 375199 326 489 164 1307.3561897623 2001.547619733 274044.27377772 467391411.22849
vector 388 IRTSystemXScenario.node[77].veinsmobility acceleration ETV
vector 389 IRTSystemXScenario.node[77].veinsmobility co2emission ETV
289	1051318 3997 256374 376748 352 491 140 0.973 5.9108002927568 228.51027482586 472.85949499137
288	1055315 4247 256374 376748 352 491 140 -4.4998560667437 2.3033349442298 4.1419116255652 111.70861157104
287	1059562 3991 255473 376748 351 491 141 0 9.5841318819889 875.17965512483 7020.5610371637
286	1063553 4388 254512 376748 350 491 142 944.48195936938 1069.9809634999 139249.05354389 136703583.33192
285	1067941 4393 254512 376748 350 491 142 1875.0429284483 2418.4978332395 294132.68075211 613491346.17477
204	1072334 7744 148910 380128 229 496 268 0.973 8.673410990374 491.60665618182 1434.5362533069
203	1080078 8522 148910 380128 229 496 268 -4.4822716274008 2.3404878334817 10.703652052354 166.57936485827
202	1088600 8028 147988 380128 228 496 269 0 14.604635214764 1814.8637795105 17956.57164732
201	1096628 8337 147029 380128 227 496 270 854.42685664288 1261.978314729 264193.98680864 262311829.17576
200	1104965 8344 147029 380128 227 496 270 1371.6175085447 2734.4598972584 518981.52286423 1041988156.0552
vector 390 IRTSystemXScenario.node[78].veinsmobility posx ETV
vector 391 IRTSystemXScenario.node[78].veinsmobility posy ETV
vector 392 IRTSystemXScenario.node[78].veinsmobility speed ETV
vector 393 IRTSystemXScenario.node[78].veinsmobility acceleration ETV
vector 394 IRTSystemXScenario.node[78].veinsmobility co2emission ETV
vector 395 IRTSystemXScenario.node[79].veinsmobility posx ETV
vector 396 IRTSystemXScenario.node[79].veinsmobility posy ETV
vector 397 IRTSystemXScenario.node[79].veinsmobility speed ETV
314	1113822 3428 291722 386113 391 504 114 0.973 8.705838258143 219.02560093628 590.82101823211
313	1117250 3757 291722 386113 391 504 114 -4.438088983256 2.2343776525953 4.4026636232164 84.24080625492
312	1121007 3555 290918 386113 390 504 115 1.2684955134234 14.181170740227 955.90131720512 8367.9005836048
311	1124562 3581 290114 386113 389 504 116 875.3425514402 1177.753136144 113524.71735115 111900491.93528
310	1128143 3586 290114 386113 389 504 116 1497.0810652971 2272.9658381977 223637.83362832 437259186.3022
vector 398 IRTSystemXScenario.node[79].veinsmobility acceleration ETV
vector 399 IRTSystemXScenario.node[79].veinsmobility co2emission ETV
vector 400 IRTSystemXScenario.node[80].veinsmobility posx ETV
vector 401 IRTSystemXScenario.node[80].veinsmobility posy ETV
vector 402 IRTSystemXScenario.node[80].veinsmobility speed ETV
vector 403 IRTSystemXScenario.node[80].veinsmobility acceleration ETV
vector 404 IRTSystemXScenario.node[80].veinsmobility co2emission ETV
319	1132194 3348 298300 394269 400 514 115 0.973 15.348318848654 383.42449019129 2714.8496690842
318	1135542 3620 298300 394269 400 514 115 -4.5 2.3098042544237 21.384831657169 240.06653940466
317	1139162 3458 297603 394269 399 514 116 0 25.456269968294 1198.6296506232 16409.448772616
316	1142620 3601 296898 394269 398 514 117 751.47504596538 999.80432319251 107689.62966971 99527023.986465
315	1146221 3624 296898 394269 398 514 117 1493.3761460449 2220.7546048436 224148.9538048 435516227.73778
vector 405 IRTSystemXScenario.node[81].veinsmobility posx ETV
vector 406 IRTSystemXScenario.node[81].veinsmobility posy ETV
vector 407 IRTSystemXScenario.node[81].veinsmobility speed ETV
vector 408 IRTSystemXScenario.node[81].veinsmobility acceleration ETV
vector 409 IRTSystemXScenario.node[81].veinsmobility co2emission ETV
vector 410 IRTSystemXScenario.node[82].veinsmobility posx ETV
vector 411 IRTSystemXScenario.node[82].veinsmobility posy ETV
vector 412 IRTSystemXScenario.node[82].veinsmobility speed ETV
vector 413 IRTSystemXScenario.node[82].veinsmobility acceleration ETV
vector 414 IRTSystemXScenario.node[82].veinsmobility co2emission ETV
vector 415 IRTSystemXScenario.node[83].veinsmobility posx ETV
vector 416 IRTSystemXScenario.node[83].veinsmobility posy ETV
vector 417 IRTSystemXScenario.node[83].veinsmobility speed ETV
vector 418 IRTSystemXScenario.node[83].veinsmobility acceleration ETV
vector 419 IRTSystemXScenario.node[83].veinsmobility co2emission ETV
329	1150823 3626 306967 408749 412 530 119 0.973 8.0070770141021 251.34301156382 723.38671339685
328	1154449 3957 306967 408749 412 530 119 -3.251035771808 2.1079142922955 10.81197123381 48.663619329192
327	1158406 3710 306203 408749 411 530 120 2.8275980060662 13.667207243353 1298.9368508436 15037.224223297
326	1162116 3737 305471 408749 410 530 121 300.07378290172 861.17048932114 71522.018989972 45452483.327571
325	1165853 3740 305471 408749 410 530 121 1487.2033582806 2249.5634043204 219313.03668894 403260188.15094
249	1169593 6576 207368 409895 295 531 237 0.973 8.4484330493831 423.33193086967 1108.3435315645
248	1176169 6777 207368 409895 295 531 237 -4.5 2.4555058582605 8.2526466194786 191.11308719979
247	1182946 6415 206646 409895 294 531 238 0 12.200852354836 1679.8680770661 17742.989160858
246	1189361 7392 205803 409895 293 531 239 298.38577542854 875.26223293988 155828.5423797 111556346.80724
245	1196753 7384 205803 409895 293 531 239 1377.9061528785 2267.7166677313 418871.28805924 750975122.25016
vector 420 IRTSystemXScenario.node[84].veinsmobility posx ETV
vector 421 IRTSystemXScenario.node[84].veinsmobility posy ETV
vector 422 IRTSystemXScenario.node[84].veinsmobility speed ETV
vector 423 IRTSystemXScenario.node[84].veinsmobility acceleration ETV
vector 424 IRTSystemXScenario.node[84].veinsmobility co2emission ETV
309	1204463 4855 281586 417650 379 538 160 0.973 7.2185121031808 299.20629848419 759.48310473859
308	1209318 5285 281586 417650 379 538 160 -4.4371843491631 1.9837044375297 3.8640669875386 77.650498670726
307	1214603 4965 280702 417650 378 538 161 4.0580723891282 13.318960646445 1439.0168057325 13609.854190626
306	1219568 5008 279774 417650 377 538 162 875.92656854623 1229.2007723746 164096.77856639 167947443.83705
305	1224576 5007 279774 417650 377 538 162 1500.2868854925 2546.9863938001 338523.0304173 723603156.81881
324	1229583 3762 302620 420999 406 541 136 0.973 15.167325981694 354.13065753757 1756.5717533865
323	1233345 3876 302620 420999 406 541 136 -4.5 2.239154341429 4.8544578070507 205.05487892427
322	1237221 3723 301892 420999 405 541 137 0 24.294075815704 1434.8819039144 22878.32157374
321	1240944 4264 301172 420999 404 541 138 299.54851114656 1099.7807046867 83988.011812317 57931436.893013
320	1245208 4262 301172 420999 404 541 138 1952.4867023985 2283.1853845823 299480.38036078 651333686.08162
vector 425 IRTSystemXScenario.node[85].veinsmobility posx ETV
vector 426 IRTSystemXScenario.node[85].veinsmobility posy ETV
vector 427 IRTSystemXScenario.node[85].veinsmobility speed ETV
vector 428 IRTSystemXScenario.node[85].veinsmobility acceleration ETV
vector 429 IRTSystemXScenario.node[85].veinsmobility co2emission ETV
394	1249796 1484 382301 428327 499 548 50 0.973 13.644495146762 147.98676469357 884.16745282314
393	1251280 1619 382301 428327 499 548 50 -4.5 2.0786166608052 4.5124098009919 98.608206860108
392	1252899 1575 381554 428327 498 548 51 4.0992595930029 21.771386260368 488.6446092324 6254.1251812264
391	1254474 1609 380819 428327 497 548 52 763.70426270976 1226.3822550563 55340.108184463 59735998.652988
390	1256083 1609 380819 428327 497 548 52 2157.1876750524 2219.7180696544 113172.55007731 246320518.75522
vector 430 IRTSystemXScenario.node[86].veinsmobility posx ETV
vector 431 IRTSystemXScenario.node[86].veinsmobility posy ETV
vector 432 IRTSystemXScenario.node[86].veinsmobility speed ETV
vector 433 IRTSystemXScenario.node[86].veinsmobility acceleration ETV
vector 434 IRTSystemXScenario.node[86].veinsmobility co2emission ETV
vector 435 IRTSystemXScenario.node[87].veinsmobility posx ETV
vector 436 IRTSystemXScenario.node[87].veinsmobility posy ETV
vector 437 IRTSystemXScenario.node[87].veinsmobility speed ETV
vector 438 IRTSystemXScenario.node[87].veinsmobility acceleration ETV
vector 439 IRTSystemXScenario.node[87].veinsmobility co2emission ETV
vector 440 IRTSystemXScenario.node[88].veinsmobility posx ETV
vector 441 IRTSystemXScenario.node[88].veinsmobility posy ETV
vector 442 IRTSystemXScenario.node[88].veinsmobility speed ETV
vector 443 IRTSystemXScenario.node[88].veinsmobility acceleration ETV
vector 444 IRTSystemXScenario.node[88].veinsmobility co2emission ETV
339	1258670 4250 317893 445079 424 565 142 0.973 12.314461048279 294.26659307625 1094.1419604857
338	1262920 4630 317893 445079 424 565 142 -4.5 2.2866789426352 3.9023957104254 143.91434913456
337	1267550 4344 316899 445079 423 565 143 0 21.234848913568 1188.5648069643 11773.065048187
336	1271894 4446 315877 445079 422 565 144 634.64194316579 1032.3159165594 111428.44260556 89152659.563279
335	1276340 4449 315877 445079 422 565 144 1545.2162615317 2349.9869844238 282200.55216353 562858632.65734
vector 445 IRTSystemXScenario.node[89].veinsmobility posx ETV
vector 446 IRTSystemXScenario.node[89].veinsmobility posy ETV
354	1280913 3805 339138 449116 445 569 125 0.973 9.9207042321619 328.44474482202 1290.1746320794
353	1284718 4147 339138 449116 445 569 125 -4.4925908562358 2.2527124095801 11.876893632923 118.40911029835
352	1288865 3887 338298 449116 444 569 126 4.1974191480821 16.125972346235 1646.6131860539 22903.212637029
351	1292752 3920 337438 449116 443 569 127 137.94509716343 871.39845838377 68072.907463316 41811480.208416
350	1296672 3933 337438 449116 443 569 127 1395.5915737491 2319.7085327156 238903.74562058 459329952.99929
vector 447 IRTSystemXScenario.node[89].veinsmobility speed ETV
vector 448 IRTSystemXScenario.node[89].veinsmobility acceleration ETV
vector 449 IRTSystemXScenario.node[89].veinsmobility co2emission ETV
364	1300807 3132 349009 453998 457 574 118 0.973 16.354888302687 333.18099040231 1908.7375088428
363	1303939 3181 349009 453998 457 574 118 -4.5 2.2973400173215 4.3587328777197 182.84547173004
362	1307120 3086 348250 453998 456 574 119 0 25.531951929946 1240.5188607469 24401.239127408
361	1310206 3714 347503 453998 455 574 120 638.0850539986 874.19097355436 95538.961275581 76798081.246068
360	1313920 3712 347503 453998 455 574 120 546.89921801446 1563.6598955469 148380.92404235 193940960.21474
419	1317632 1482 407635 456555 529 577 49 0.973 8.1161845986503 144.51299682627 609.25105333822
418	1319114 1613 407635 456555 529 577 49 -3.8167090035982 2.3018821690651 10.074059944492 72.021555251156
417	1320727 1542 406573 456555 528 577 50 4.0779382293043 14.25518534063 643.37640227054 8627.252476134
416	1322269 1567 405531 456555 527 577 51 343.19 728.06153400069 26281.861462329 14278980.521472
415	1323836 1575 405531 456555 527 577 51 2228.3521984864 2296.4351601746 115395.29164205 261118728.13117
369	1325411 3310 354584 456555 464 577 114 0.973 7.957330556557 216.79780264332 591.95501944795
368	1328721 3567 354584 456555 464 577 114 -4.4790688688489 2.315790083217 5.0109687377455 115.23999815891
367	1332288 3372 353724 456555 463 577 115 0 14.036554753715 852.25767270631 7452.5471546909
366	1335660 3587 352896 456555 462 577 116 917.76653495131 1178.0831999914 114804.13676367 114273471.47693
365	1339247 3586 352896 456555 462 577 116 1728.3234307189 2273.4462387354 229969.10562388 459112792.12725
vector 450 IRTSystemXScenario.node[90].veinsmobility posx ETV
vector 451 IRTSystemXScenario.node[90].veinsmobility posy ETV
vector 452 IRTSystemXScenario.node[90].veinsmobility speed ETV
349	1343020 4223 333967 458166 439 579 141 0.973 12.59734401773 383.11119219304 1710.4767399446
348	1347243 4608 333967 458166 439 579 141 -4.5 2.1579844617005 9.7895555253337 199.39288476671
347	1351851 4389 332998 458166 438 579 142 2.2735655564227 21.854009942723 1699.6692333949 22444.430999058
346	1356240 4420 332065 458166 437 579 143 296.59997011924 1225.6889943618 99323.622266079 84145979.498124
345	1360660 4420 332065 458166 437 579 143 2018.3493352316 2518.9548775354 321339.37670711 723792119.16308
vector 453 IRTSystemXScenario.node[90].veinsmobility acceleration ETV
vector 454 IRTSystemXScenario.node[90].veinsmobility co2emission ETV
334	1365219 5018 312125 460665 418 582 165 0.973 14.036795086078 430.33999038444 2172.8406250979
333	1370237 5420 312125 460665 418 582 165 -4.5 2.1827710862108 18.665540863937 189.52210812924
332	1375657 5136 311208 460665 417 582 166 2.689113939787 22.481313635633 1676.6789850817 20794.039784986
331	1380793 5158 310247 460665 416 582 167 634.44563716351 871.77547159291 122264.23621729 90329260.466596
330	1385951 5150 310247 460665 416 582 167 1065.1157967993 2108.4695212248 279042.04120394 481845916.85423
vector 455 IRTSystemXScenario.node[91].veinsmobility posx ETV
vector 456 IRTSystemXScenario.node[91].veinsmobility posy ETV
vector 457 IRTSystemXScenario.node[91].veinsmobility speed ETV
vector 458 IRTSystemXScenario.node[91].veinsmobility acceleration ETV
vector 459 IRTSystemXScenario.node[91].veinsmobility co2emission ETV
449	1391427 741 451127 471485 571 594 24 1.3739071224453 4.396783855182 41.60778722739 85.530982004919
448	1392168 802 451127 471485 571 594 24 -0.073232163342182 2.0369787921826 3.4545368666844 6.1005708609217
447	1392970 775 450190 471485 570 594 25 4.0211369885419 7.5088996500263 181.26492389054 1327.0102588394
446	1393745 801 449116 471485 569 594 26 755.06609018511 780.04280141862 19939.783867291 15293848.686755
445	1394546 803 449116 471485 569 594 26 2234.7564902284 2373.2367903613 59820.174129601 137688271.75795
vector 460 IRTSystemXScenario.node[92].veinsmobility posx ETV
vector 461 IRTSystemXScenario.node[92].veinsmobility posy ETV
vector 462 IRTSystemXScenario.node[92].veinsmobility speed ETV
vector 463 IRTSystemXScenario.node[92].veinsmobility acceleration ETV
vector 464 IRTSystemXScenario.node[92].veinsmobility co2emission ETV
vector 465 IRTSystemXScenario.node[93].veinsmobility posx ETV
vector 466 IRTSystemXScenario.node[93].veinsmobility posy ETV
424	1395799 1928 417650 478170 538 602 65 0.973 13.513463431576 248.92910883796 1814.3240904826
423	1397727 2078 417650 478170 538 602 65 -4.5 2.1945053646527 4.4422991814294 200.81224357918
422	1399805 2036 416497 478170 537 602 66 4.0643261209896 22.818876226929 787.09382745146 11344.211441468
421	1401841 2075 415348 478170 536 602 67 702.38249768198 999.12305976496 53622.270712396 43508935.170132
420	1403916 2070 415348 478170 536 602 67 1949.0429122586 2220.621728326 143298.04471728 306903168.12958
vector 467 IRTSystemXScenario.node[93].veinsmobility speed ETV
vector 468 IRTSystemXScenario.node[93].veinsmobility acceleration ETV
vector 469 IRTSystemXScenario.node[93].veinsmobility co2emission ETV
409	1406188 2493 396733 479775 517 604 88 0.973 16.844390982182 281.46988221758 2191.634050448
408	1408681 2692 396733 479775 517 604 88 -4.5 2.3073047184153 2.6125358929807 218.70446169309
407	1411373 2606 395897 479775 516 604 89 0 26.62911260347 862.58260825613 12012.661879576
406	1413979 2778 395057 479775 515 604 90 680.43209004876 1161.669116197 73597.630041715 62697038.958265
405	1416757 2779 395057 479775 515 604 90 1803.9101404015 2207.0935639902 183915.71365702 377312293.49366
vector 470 IRTSystemXScenario.node[94].veinsmobility posx ETV
vector 471 IRTSystemXScenario.node[94].veinsmobility posy ETV
vector 472 IRTSystemXScenario.node[94].veinsmobility speed ETV
vector 473 IRTSystemXScenario.node[94].veinsmobility acceleration ETV
vector 474 IRTSystemXScenario.node[94].veinsmobility co2emission ETV
379	1419862 3706 366041 486366 478 613 136 0.973 12.29396007343 262.4316983591 958.4175448492
378	1423568 3782 366041 486366 478 613 136 -4.4412796149804 2.1424601776311 9.2298187229069 105.46438693526
377	1427350 3609 365159 486366 477 613 137 0 20.715641713677 907.39082497714 10630.353281233
376	1430959 4220 364289 486366 476 613 138 569.14759880971 999.83936762767 126232.7557098 116800779.20479
375	1435179 4221 364289 486366 476 613 138 1733.1437949564 2256.6660690193 272863.75111358 543017672.52715
vector 475 IRTSystemXScenario.node[95].veinsmobility posx ETV
vector 476 IRTSystemXScenario.node[95].veinsmobility posy ETV
vector 477 IRTSystemXScenario.node[95].veinsmobility speed ETV
vector 478 IRTSystemXScenario.node[95].veinsmobility acceleration ETV
vector 479 IRTSystemXScenario.node[95].veinsmobility co2emission ETV
vector 480 IRTSystemXScenario.node[96].veinsmobility posx ETV
vector 481 IRTSystemXScenario.node[96].veinsmobility posy ETV
vector 482 IRTSystemXScenario.node[96].veinsmobility speed ETV
vector 483 IRTSystemXScenario.node[96].veinsmobility acceleration ETV
vector 484 IRTSystemXScenario.node[96].veinsmobility co2emission ETV
vector 485 IRTSystemXScenario.node[97].veinsmobility posx ETV
vector 486 IRTSystemXScenario.node[97].veinsmobility posy ETV
vector 487 IRTSystemXScenario.node[97].veinsmobility speed ETV
vector 488 IRTSystemXScenario.node[97].veinsmobility acceleration ETV
vector 489 IRTSystemXScenario.node[97].veinsmobility co2emission ETV
454	1440378 1649 458989 502786 580 633 54 0.973 6.3741032487976 111.15072768852 301.16469288015
453	1442027 1788 458989 502786 580 633 54 -3.3362782788793 2.0991364747542 7.497491777208 35.694605836635
452	1443815 1699 458166 502786 579 633 55 2.3691294467945 9.9669629580458 515.07439405403 4945.5835307304
451	1445514 1728 457375 502786 578 633 56 948.36159163988 1036.587336315 55438.012932128 54923617.945687
450	1447242 1730 457375 502786 578 633 56 1881.4713459066 2374.1002670118 118394.06671466 251577452.34981
vector 490 IRTSystemXScenario.node[98].veinsmobility posx ETV
vector 491 IRTSystemXScenario.node[98].veinsmobility posy ETV
vector 492 IRTSystemXScenario.node[98].veinsmobility speed ETV
vector 493 IRTSystemXScenario.node[98].veinsmobility acceleration ETV
vector 494 IRTSystemXScenario.node[98].veinsmobility co2emission ETV
389	1449298 4477 375996 507637 490 638 149 0.973 5.7700285174369 253.86012650371 513.83290569937
388	1453775 4916 375996 507637 490 638 149 -4.3687682752999 2.1397344463528 4.3098791444607 77.165233914171
387	1458691 4637 375199 507637 489 638 150 0.019358536536906 8.3215675136506 1107.5311203243 8718.4304174651
386	1463328 4659 374362 507637 488 638 151 878.03146668751 1042.5542987268 145513.59803905 140542615.32886
385	1467987 4669 374362 507637 488 638 151 1493.4125518547 2424.0609819614 303260.92135002 621834328.61332
399	1472656 3695 386925 508645 505 639 135 0.973 8.6688182684123 246.49165763818 686.25282940481
398	1476351 3767 386925 508645 505 639 135 -4.5 2.2196596244588 3.9745308772707 123.47069027517
397	1480118 3602 386113 508645 504 639 136 0 13.39254303322 952.95820441633 10677.998363367
396	1483720 4239 385293 508645 503 639 137 300.5118445733 749.75719349919 78832.233690652 48226805.623253
395	1487959 4240 385293 508645 503 639 137 1945.4278383558 2283.675179961 298866.16907874 653091573.57775
374	1492199 5259 358770 512362 469 643 175 0.973 6.7187715248202 283.69048995845 594.74784805755
373	1497458 5787 358770 512362 469 643 175 -3.1593538166269 2.5545248238207 7.0937193415356 59.708663218989
372	1503245 5407 357945 512362 468 643 176 0 11.280955255526 1129.2722570698 8308.7293158562
371	1508652 5467 357072 512362 467 643 177 854.49841220046 1022.4285019654 165094.23166531 154534662.00188
370	1514119 5463 357072 512362 467 643 177 1371.1689089983 2285.3308746348 320546.88555799 597305686.16506
[...]
vector 2573 IRTSystemXScenario.node[514].veinsmobility acceleration ETV
vector 2574 IRTSystemXScenario.node[514].veinsmobility co2emission ETV
vector 2575 IRTSystemXScenario.node[515].veinsmobility posx ETV
vector 2576 IRTSystemXScenario.node[515].veinsmobility posy ETV
2449	10000621 5533 2532296 2651494 3334 3512 179 0.973 14.735478967346 405.55324722211 1731.0492332236
2448	10006154 5742 2532296 2651494 3334 3512 179 -4.5 2.3426073316623 3.7202062414068 171.65147987426
2447	10011896 5469 2531637 2651494 3333 3512 180 0 23.629906515477 1674.9260395598 26266.173417926
2446	10017365 6142 2530958 2651494 3332 3512 181 637.94234167538 875.32486153156 136326.30881156 104184412.59291
2445	10023507 6141 2530958 2651494 3332 3512 181 546.93272324273 1789.4914986825 249116.66551607 361492572.51643
vector 2577 IRTSystemXScenario.node[515].veinsmobility speed ETV
vector 2578 IRTSystemXScenario.node[515].veinsmobility acceleration ETV
vector 2579 IRTSystemXScenario.node[515].veinsmobility co2emission ETV
2484	10029856 4231 2568064 2654428 3385 3517 133 0.973 8.981503200012 233.05098961647 577.76571335104
2483	10034087 4465 2568064 2654428 3385 3517 133 -4.4911027890956 2.1989395549219 4.4652882602834 81.880413551397
2482	10038552 4220 2567410 2654428 3384 3517 134 0 13.990809190189 968.71661783076 8962.6394328359
2481	10042772 4585 2566760 2654428 3383 3517 135 638.10269920037 919.32685080706 110578.05959121 91993962.32662
2480	10047357 4571 2566760 2654428 3383 3517 135 1485.2808836298 1777.0274990434 213286.56177441 337953135.72507
vector 2580 IRTSystemXScenario.node[516].veinsmobility posx ETV
vector 2581 IRTSystemXScenario.node[516].veinsmobility posy ETV
vector 2582 IRTSystemXScenario.node[516].veinsmobility speed ETV
vector 2583 IRTSystemXScenario.node[516].veinsmobility acceleration ETV
vector 2584 IRTSystemXScenario.node[516].veinsmobility co2emission ETV
2519	10052264 3159 2597239 2658348 3430 3524 95 0.973 8.8486409522151 213.48385612092 705.95147420341
2518	10055423 3419 2597239 2658348 3430 3524 95 -4.4829979606485 2.1395628185011 4.2857716149603 79.689956602962
2517	10058842 3252 2596472 2658348 3429 3524 96 4.1351413818192 14.249217297947 1068.3329358386 12705.319274251
2516	10062094 3288 2595713 2658348 3428 3524 97 296.74696433477 698.1937735968 53760.654656479 31441645.492299
2515	10065382 3288 2595713 2658348 3428 3524 97 1593.1807651019 2015.6993778324 182484.00029076 344771584.62883
2479	10068670 4700 2562776 2658348 3377 3524 148 0.973 9.4412536860851 281.34972634377 846.38963678213
2478	10073370 5105 2562776 2658348 3377 3524 148 -4.5 2.2298589790678 9.416232771044 135.61925521741
2477	10078475 4839 2562041 2658348 3376 3524 149 0 14.852373694071 1059.1246078003 9164.0305116556
2476	10083314 5083 2561290 2658348 3375 3524 150 854.22347695038 1122.4384795322 139759.99841358 130955345.1307
2475	10088397 5093 2561290 2658348 3375 3524 150 1370.5397642111 2177.1397857613 262704.5034262 472120893.0775
vector 2585 IRTSystemXScenario.node[517].veinsmobility posx ETV
vector 2586 IRTSystemXScenario.node[517].veinsmobility posy ETV
vector 2587 IRTSystemXScenario.node[517].veinsmobility speed ETV
vector 2588 IRTSystemXScenario.node[517].veinsmobility acceleration ETV
vector 2589 IRTSystemXScenario.node[517].veinsmobility co2emission ETV
vector 2590 IRTSystemXScenario.node[518].veinsmobility posx ETV
vector 2591 IRTSystemXScenario.node[518].veinsmobility posy ETV
vector 2592 IRTSystemXScenario.node[518].veinsmobility speed ETV
2549	10094019 2014 2631517 2666316 3478 3537 60 0.973 8.8538379185035 173.63928238047 702.66954858654
2548	10096033 2144 2631517 2666316 3478 3537 60 -4.5 2.1825022693165 10.873382899061 67.04324634426
2547	10098177 2063 2630761 2666316 3477 3537 61 4.154267866308 15.112849571134 854.02529171586 12339.041352668
2546	10100240 2104 2629997 2666316 3476 3537 62 296.82872905711 584.76844642227 25075.077043991 10674430.761032
2545	10102344 2103 2629997 2666316 3476 3537 62 1948.6775202423 2262.6225935772 126342.08406342 258094297.56377
vector 2593 IRTSystemXScenario.node[518].veinsmobility acceleration ETV
vector 2594 IRTSystemXScenario.node[518].veinsmobility co2emission ETV
vector 2595 IRTSystemXScenario.node[519].veinsmobility posx ETV
vector 2596 IRTSystemXScenario.node[519].veinsmobility posy ETV
vector 2597 IRTSystemXScenario.node[519].veinsmobility speed ETV
vector 2598 IRTSystemXScenario.node[519].veinsmobility acceleration ETV
vector 2599 IRTSystemXScenario.node[519].veinsmobility co2emission ETV
2499	10104926 4415 2578762 2671868 3403 3545 143 0.973 6.8513204022561 249.29458686243 626.9731543293
2498	10109341 4647 2578762 2671868 3403 3545 143 -4.4996388669634 2.2937306513767 4.847629690182 119.67404843014
2497	10113988 4470 2578165 2671868 3402 3545 144 0 13.214301976021 863.10181501216 7832.759438149
2496	10118458 4913 2577576 2671868 3401 3545 145 844.88123519185 995.07961220929 133377.50262516 122962860.76743
2495	10123371 4922 2577576 2671868 3401 3545 145 1311.6414670596 2148.6748308557 249856.12418106 439106201.7987
vector 2600 IRTSystemXScenario.node[520].veinsmobility posx ETV
vector 2601 IRTSystemXScenario.node[520].veinsmobility posy ETV
vector 2602 IRTSystemXScenario.node[520].veinsmobility speed ETV
vector 2603 IRTSystemXScenario.node[520].veinsmobility acceleration ETV
vector 2604 IRTSystemXScenario.node[520].veinsmobility co2emission ETV
vector 2605 IRTSystemXScenario.node[521].veinsmobility posx ETV
vector 2606 IRTSystemXScenario.node[521].veinsmobility posy ETV
vector 2607 IRTSystemXScenario.node[521].veinsmobility speed ETV
vector 2608 IRTSystemXScenario.node[521].veinsmobility acceleration ETV
vector 2609 IRTSystemXScenario.node[521].veinsmobility co2emission ETV
vector 2610 IRTSystemXScenario.node[522].veinsmobility posx ETV
vector 2611 IRTSystemXScenario.node[522].veinsmobility posy ETV
vector 2612 IRTSystemXScenario.node[522].veinsmobility speed ETV
vector 2613 IRTSystemXScenario.node[522].veinsmobility acceleration ETV
vector 2614 IRTSystemXScenario.node[522].veinsmobility co2emission ETV
2569	10129301 2293 2645418 2688264 3502 3571 70 0.973 11.762490021783 193.8741354262 954.40189418818
2568	10131594 2482 2645418 2688264 3502 3571 70 -4.5 2.282493411575 4.9507144474495 132.26629049245
2567	10134076 2402 2644901 2688264 3501 3571 71 4.143929187089 19.086838246963 755.97901195889 8743.3195511491
2566	10136478 2440 2644396 2688264 3500 3571 72 996.00808055 1225.7413237382 78199.221836049 85338304.726545
2565	10138918 2443 2644396 2688264 3500 3571 72 2149.2561132557 2539.566379531 166726.53834651 387141185.2766
2594	10141361 1200 2667025 2689677 3538 3573 36 0.973 14.234847975886 158.15565842348 1138.1410987291
2593	10142561 1277 2667025 2689677 3538 3573 36 -1.8690629617437 2.0889097354328 19.650518155054 49.736121922323
2592	10143838 1254 2666316 2689677 3537 3573 37 4.003810246014 23.720749172957 517.21376359592 9036.8162135325
2591	10145092 1286 2665611 2689677 3536 3573 38 733.3408057128 1077.9196485135 30909.744759082 25555144.017176
2590	10146378 1284 2665611 2689677 3536 3573 38 2117.2776668735 2206.826942265 82389.762999969 178657388.20622
vector 2615 IRTSystemXScenario.node[523].veinsmobility posx ETV
vector 2616 IRTSystemXScenario.node[523].veinsmobility posy ETV
vector 2617 IRTSystemXScenario.node[523].veinsmobility speed ETV
vector 2618 IRTSystemXScenario.node[523].veinsmobility acceleration ETV
vector 2619 IRTSystemXScenario.node[523].veinsmobility co2emission ETV
vector 2620 IRTSystemXScenario.node[524].veinsmobility posx ETV
vector 2621 IRTSystemXScenario.node[524].veinsmobility posy ETV
vector 2622 IRTSystemXScenario.node[524].veinsmobility speed ETV
vector 2623 IRTSystemXScenario.node[524].veinsmobility acceleration ETV
vector 2624 IRTSystemXScenario.node[524].veinsmobility co2emission ETV
vector 2625 IRTSystemXScenario.node[525].veinsmobility posx ETV
vector 2626 IRTSystemXScenario.node[525].veinsmobility posy ETV
2559	10148462 3274 2639479 2700542 3490 3587 98 0.973 8.6791364223056 213.91167310029 677.2748381022
2558	10151736 3548 2639479 2700542 3490 3587 98 -3.7818276436435 2.1522559719253 8.7397143137803 63.053112774835
2557	10155284 3356 2638868 2700542 3489 3587 99 4.5204240180412 13.26718923162 1043.5373985516 11707.086340741
2556	10158640 3392 2638216 2700542 3488 3587 100 300.23641302523 927.81058336882 62593.080429996 43557266.716902
2555	10162032 3391 2638216 2700542 3488 3587 100 2042.0263963026 2433.333386804 229325.28862392 526882984.03572
vector 2627 IRTSystemXScenario.node[525].veinsmobility speed ETV
vector 2628 IRTSystemXScenario.node[525].veinsmobility acceleration ETV
vector 2629 IRTSystemXScenario.node[525].veinsmobility co2emission ETV
2514	10165631 5611 2593144 2705210 3424 3592 169 0.973 11.023364964019 307.26067521852 919.47775733519
2513	10171242 6096 2593144 2705210 3424 3592 169 -4.5 2.3564153621369 0.89350759530688 129.88779386763
2512	10177338 5791 2592441 2705210 3423 3592 170 1.1906164302754e-05 18.741640541539 1169.9499634282 9279.2072463979
2511	10183129 5794 2591722 2705210 3422 3592 171 874.11418997531 1224.2413047849 164428.96324998 159638585.97651
2510	10188923 5796 2591722 2705210 3422 3592 171 1486.2814856335 2169.7154732989 310859.61941638 575634237.16613
vector 2630 IRTSystemXScenario.node[526].veinsmobility posx ETV
vector 2631 IRTSystemXScenario.node[526].veinsmobility posy ETV
vector 2632 IRTSystemXScenario.node[526].veinsmobility speed ETV
vector 2633 IRTSystemXScenario.node[526].veinsmobility acceleration ETV
vector 2634 IRTSystemXScenario.node[526].veinsmobility co2emission ETV
vector 2635 IRTSystemXScenario.node[527].veinsmobility posx ETV
vector 2636 IRTSystemXScenario.node[527].veinsmobility posy ETV
vector 2637 IRTSystemXScenario.node[527].veinsmobility speed ETV
2509	10195248 5900 2588946 2712099 3418 3600 183 0.973 8.3188888267787 339.97931024774 920.36636626944
2508	10201148 6393 2588946 2712099 3418 3600 183 -4.489848666585 2.2598273560079 -4.0149036494046 116.83910623979
2507	10207541 6042 2588248 2712099 3417 3600 184 0 14.390150886915 1503.9180173758 15423.140120163
2506	10213583 6274 2587554 2712099 3416 3600 185 855.53462797182 1258.3008449421 182205.87876569 182183210.90209
2505	10219857 6264 2587554 2712099 3416 3600 185 1380.7633322089 2727.395834341 362321.17919359 742608895.08722
2524	10226121 5018 2602159 2712099 3436 3600 165 0.973 7.5505597051824 289.78615071277 752.51259647742
2523	10231139 5151 2602159 2712099 3436 3600 165 -4.5 2.2578448037666 -4.0844360000347 145.70218154061
2522	10236290 4919 2601319 2712099 3435 3600 166 0 13.413481875155 1158.062881983 12711.023288481
2521	10241209 5666 2600531 2712099 3434 3600 167 296.80407984296 872.03955297693 117128.08202694 86101250.482627
2520	10246875 5660 2600531 2712099 3434 3600 167 1373.3670273828 2007.9442649794 273869.63907572 458629107.85099
2539	10252535 4463 2619884 2712099 3460 3600 141 0.973 11.014894240244 313.0696889494 1165.4355522581
2538	10256998 4742 2619884 2712099 3460 3600 141 -4.4960990002688 2.2149877492945 -4.0067216794887 161.1544503792
2537	10261740 4496 2619190 2712099 3459 3600 142 0 20.510108676334 1352.9946127469 19939.247047665
2536	10266236 4853 2618395 2712099 3458 3600 143 647.20381969156 945.91065120701 122215.07358848 105567328.5368
2535	10271089 4843 2618395 2712099 3458 3600 143 546.93911760233 1866.0952018358 201405.12355702 307329977.5459
2544	10275932 4050 2623815 2712099 3466 3600 135 0.973 12.239326343994 335.04855334708 1626.8389000473
2543	10279982 4162 2623815 2712099 3466 3600 135 -4.5 2.4225155572453 4.6850913079529 241.41322252373
2542	10284144 4031 2623223 2712099 3465 3600 136 0 22.81386488457 1181.7218081937 16778.58990748
2541	10288175 4647 2622635 2712099 3464 3600 137 343.25280496155 994.07931346935 87879.708523098 60350050.076468
2540	10292822 4648 2622635 2712099 3464 3600 137 2056.9781815346 2296.5243024541 305337.66943083 680832979.15633
2554	10297470 3531 2635735 2712099 3484 3600 117 0.973 12.215301536811 226.63179280305 946.38986970758
2553	10301001 3612 2635735 2712099 3484 3600 117 -4.5 2.213186157092 -4.1132058304435 116.74344427177
2552	10304613 3489 2635067 2712099 3483 3600 118 0 21.36240063373 765.36100257566 8664.9293457174
2551	10308102 4036 2634371 2712099 3482 3600 119 700.14091335353 1144.3061339699 99116.223128275 85925325.833977
2550	10312138 4040 2634371 2712099 3482 3600 119 1936.8445065627 2273.7185119311 247631.75341804 517018405.30749
2564	10316178 3332 2642395 2712099 3496 3600 105 0.973 4.2887913973359 144.7431444071 216.38428845952
2563	10319510 3570 2642395 2712099 3496 3600 105 -2.3984399282362 1.9808583742566 -4.0286191551461 17.260887218861
2562	10323080 3383 2641869 2712099 3495 3600 106 0 6.9876100435693 524.24039814408 3578.2619095479
2561	10326463 3632 2641347 2712099 3494 3600 107 945.58211090331 1144.3103658893 107461.85156713 108421100.89637
2560	10330095 3623 2641347 2712099 3494 3600 107 1885.2823434088 2273.7296642947 219087.28083819 450528324.51815
2574	10333718 3016 2649022 2712099 3508 3600 93 0.973 4.9040110635583 147.69398308156 270.21093370788
2573	10336734 3208 2649022 2712099 3508 3600 93 -4.4618484860978 1.9080992222857 -4.1176158835328 39.922046159525
2572	10339942 3033 2648336 2712099 3507 3600 94 0 8.4243018925735 676.74428075288 5585.9696393562
2571	10342975 3218 2647650 2712099 3506 3600 95 873.84940243585 992.97612291066 88229.545003557 82085032.652593
2570	10346193 3220 2647650 2712099 3506 3600 95 1488.8847861408 2156.2786755367 170318.01685876 309800252.3134
2579	10349413 2690 2652697 2712099 3514 3600 87 0.973 9.7850920812123 150.20314302366 461.31910587421
2578	10352103 2933 2652697 2712099 3514 3600 87 -4.5 2.0214765577554 -4.0672774851243 71.134994228712
2577	10355036 2824 2652148 2712099 3513 3600 88 0 15.553366877843 495.48216867006 4218.7936074826
2576	10357860 3020 2651494 2712099 3512 3600 89 946.66915689586 1100.3310719146 87704.475343568 86602483.256416
2575	10360880 3017 2651494 2712099 3512 3600 89 1892.7042436338 2177.2960501386 180500.04647442 367279925.49192
2584	10363897 2206 2657727 2712099 3523 3600 78 0.973 4.9997788043612 102.4649750998 165.96404987923
2583	10366103 2159 2657727 2712099 3523 3600 78 -4.126141630529 2.0804142225627 -4.0074129523257 41.218266365442
2582	10368262 2101 2657134 2712099 3522 3600 79 0 8.1772761689268 281.79572583025 2240.4084115655
2581	10370363 2716 2656549 2712099 3521 3600 80 944.49506488962 992.97861081492 76536.127320471 73244368.168902
2580	10373079 2712 2656549 2712099 3521 3600 80 1877.8604430394 2156.2938984986 155803.1435371 304144569.45375
2589	10375791 2352 2661291 2712099 3529 3600 72 0.973 9.1286538105092 182.40657273878 727.56104656304
2588	10378143 2569 2661291 2712099 3529 3600 72 -4.4742275882953 2.399382534218 4.6897938157614 103.99195388695
2587	10380712 2474 2660679 2712099 3528 3600 73 4.2697986837129 14.960267092259 798.55383698975 9410.8860230399
2586	10383186 2510 2660063 2712099 3527 3600 74 989.00816361487 1229.6543286745 80970.41973528 89130954.525898
2585	10385696 2507 2660063 2712099 3527 3600 74 2131.9995688005 2544.6545614218 175289.72241089 416142546.25445
2599	10388203 1912 2671151 2712099 3544 3600 57 0.973 9.0139582072277 133.58907359047 444.83823208935
2598	10390115 2058 2671151 2712099 3544 3600 57 -4.4828670790722 2.2772998519614 4.8455556168387 51.655597029188
2597	10392173 1962 2670458 2712099 3543 3600 58 3.9552770976461 14.869662771089 663.94040964778 8179.3715747465
2596	10394135 1999 2669757 2712099 3542 3600 59 1005.7729702637 1258.2965829387 66559.624370301 75659254.745037
2595	10396134 1999 2669757 2712099 3542 3600 59 2220.32936714 2727.3736110375 144896.29100379 357142800.7611
2604	10398133 1466 2678475 2712099 3556 3600 45 0.973 5.1642559909303 68.788475136089 130.15799949958
2603	10399599 1636 2678475 2712099 3556 3600 45 -2.3596675877339 2.0680501285824 -3.8953498754361 21.41478598071
2602	10401235 1591 2677842 2712099 3555 3600 46 3.5416904117681e-05 7.9185615877364 259.26895642 1963.990178934
2601	10402826 1595 2677193 2712099 3554 3600 47 947.75621485323 992.97948775952 45427.133937638 43919085.381263
2600	10404421 1592 2677193 2712099 3554 3600 47 1900.1262255496 2156.2992643378 94209.364425744 189217851.5947
2609	10406013 1219 2684246 2712099 3565 3600 36 2.9681406373919 14.074710040332 176.13738574654 1184.4394237406
2608	10407232 1291 2684246 2712099 3565 3600 36 -0.067701926408336 2.2012229143386 18.980428879106 37.522901324438
2607	10408523 1256 2683616 2712099 3564 3600 37 4.0456511438322 23.067245873003 751.46832896906 16338.102261468
2606	10409779 1288 2682986 2712099 3563 3600 38 647.20344119057 829.22030332453 27780.989048961 20444262.282574
2605	10411067 1291 2682986 2712099 3563 3600 38 546.93766599769 1241.9697659177 32049.563076189 28935596.669693
2614	10412358 1018 2688264 2712099 3571 3600 30 1.4402455349164 5.0619202746077 55.443781978464 122.5762503331
2613	10413376 1093 2688264 2712099 3571 3600 30 -0.069534053120297 1.9243935716315 4.706921648337 8.0386206454491
2612	10414469 1048 2687533 2712099 3570 3600 31 3.916594189782 8.7133842552265 259.50042199535 2201.9368315402
2611	10415517 1084 2686826 2712099 3569 3600 32 641.83308263034 685.35695989275 21186.962235651 14033716.54908
2610	10416601 1086 2686826 2712099 3569 3600 32 1587.4389364147 1831.9783481426 54431.726969688 92776957.394941
2619	10417687 815 2692360 2712099 3577 3600 24 1.4353401389824 5.5717767792562 49.527560947568 131.66094879585
2618	10418502 870 2692360 2712099 3577 3600 24 -0.09178703340236 1.9018632548349 5.5425470367946 10.122019361671
2617	10419372 850 2691670 2712099 3576 3600 25 4.0352651202566 9.5778121570512 227.12186111291 2104.4743314493
2616	10420222 880 2690988 2712099 3575 3600 26 641.83747282691 679.48763002272 17132.439034648 11293005.249546
2615	10421102 880 2690988 2712099 3575 3600 26 1587.4631908646 1798.5273991202 43764.947773214 73786643.468778
2624	10421982 610 2696978 2712099 3583 3600 18 1.2795964503611 4.0555002459725 35.825314308596 87.848244893641
2623	10422592 647 2696978 2712099 3583 3600 18 -0.10061495390022 1.8323609614256 5.3508378000019 6.936763293018
2622	10423239 646 2696123 2712099 3582 3600 19 3.9914469741446 9.3422847741465 125.43514816776 856.48853733829
2621	10423885 678 2695268 2712099 3581 3600 20 1085.6095465285 1165.3728084102 22777.883596678 25954762.611316
2620	10424563 677 2695268 2712099 3581 3600 20 2116.9849131717 2160.3758992391 42882.235510478 91948261.662262
2629	10425240 407 2702421 2712099 3589 3600 12 1.8522932235766 9.1385472889299 48.661352732941 262.12558480194
2628	10425647 424 2702421 2712099 3589 3600 12 -0.068626666883937 2.1079080700758 10.194600834481 19.08109300858
2627	10426071 441 2701494 2712099 3588 3600 13 4.3165146816264 14.638121738779 156.56802500556 2045.6084388642
2626	10426512 476 2700542 2712099 3587 3600 14 315.07093624603 338.34318863851 4610.6542510715 1519295.4153368
2625	10426988 475 2700542 2712099 3587 3600 14 2127.8942084165 2262.6027774862 30946.232877237 68433678.566088
2634	10427463 203 2707823 2712099 3595 3600 6 1.5172298775789 5.5041228807602 16.838041950249 62.831858108585
2633	10427666 213 2707823 2712099 3595 3600 6 -0.028488545229193 2.0731470383774 4.2769146132325 8.284949983275
2632	10427879 238 2706980 2712099 3594 3600 7 4.2037947739086 8.5091979323702 52.729811254934 414.11498712203
2631	10428117 272 2706113 2712099 3593 3600 8 956.51816773604 997.94743900171 7778.6273176083 7565113.1741598
2630	10428389 272 2706113 2712099 3593 3600 8 2418.0143632515 2420.4565469526 19356.192032227 46832777.272356
2637	10428661 34 2712099 2712099 3600 3600 1 3.9358231798903 3.9358231798903 3.9358231798903 15.490704103362
2636	10428695 68 2711139 2712099 3599 3600 2 992.97480568107 992.97480568107 1985.9496113621 1971997.9294347
2635	10428763 68 2711139 2712099 3599 3600 2 2156.2706156865 2156.2706156865 4312.5412313729 9299005.9361458

