version 2
run General-0-20211009-19:56:21-1681080
attr configname General
attr datetime 20211009-19:56:21
attr experiment General
attr inifile omnetpp.ini
attr iterationvars ""
attr iterationvarsf ""
attr measurement ""
attr network IRTSystemXScenario
attr processid 1681080
attr repetition 0
attr replication #0
attr resultdir results
attr runnumber 0
attr seedset 0
param **.debug true
param **.coreDebug true
param *.playgroundSizeX 3900m
param *.playgroundSizeY 1700m
param *.playgroundSizeZ 50m
param *.annotations.draw true
param *.obstacles.obstacles "xmldoc(\"config.xml\", \"//AnalogueModel[@type='SimpleObstacleShadowing']/obstacles\")"
param *.manager.updateInterval 1s
param *.manager.host "\"localhost\""
param *.manager.port 9999
param *.manager.autoShutdown false
param *.manager.launchConfig "xmldoc(\"IRTSystemX.launchd.xml\")"
param *.connectionManager.sendDirect true
param *.connectionManager.maxInterfDist 420m
param *.connectionManager.drawMaxIntfDist true
param *.**.nic.mac1609_4.useServiceChannel false
param *.**.nic.mac1609_4.txPower 20mW
param *.**.nic.mac1609_4.bitrate 6Mbps
param *.**.nic.phy80211p.minPowerLevel -89dBm
param *.**.nic.phy80211p.useNoiseFloor true
param *.**.nic.phy80211p.noiseFloor -98dBm
param *.**.nic.phy80211p.decider "xmldoc(\"config.xml\")"
param *.**.nic.phy80211p.analogueModels "xmldoc(\"config.xml\")"
param *.**.nic.phy80211p.usePropagationDelay true
param *.**.nic.phy80211p.antenna "xmldoc(\"antenna.xml\", \"/root/Antenna[@id='monopole']\")"
param *.node[*].nic.phy80211p.antennaOffsetY "0 m"
param *.node[*].nic.phy80211p.antennaOffsetZ "1.895 m"
param *.node[*].applType "\"JosephVeinsApp\""
param *.node[*].appl.headerLength "80 bit"
param *.node[*].appl.sendBeacons true
param *.node[*].appl.dataOnSch false
param *.node[*].appl.beaconInterval 1s
param *.node[*].appl.serialNumber "\"IRTSystemXScenario-ITSG5-1\""
param *.node[*].appl.savePath "\"../../../f2md-results/sim-traces/\""
param *.node[*].appl.UseAttacksServer false
param *.node[*].appl.MixLocalAttacks true
param *.node[*].appl.RandomLocalMix false
param *.node[*].appl.LOCAL_ATTACKER_PROB 0.1
param *.node[*].appl.LOCAL_ATTACK_TYPE 2
param *.node[*].appl.GLOBAL_ATTACKER_PROB 0.0
param *.node[*].appl.GLOBAL_ATTACK_TYPE 20
param *.node[*].appl.EnablePC false
param *.node[*].appl.PC_TYPE 5
param *.node[*].appl.EnableV1 true
param *.node[*].appl.EnableV2 false
param *.node[*].appl.SaveStatsV1 true
param *.node[*].appl.SaveStatsV2 false
param *.node[*].appl.checksVersionV1 1
param *.node[*].appl.checksVersionV2 2
param *.node[*].appl.appTypeV1 0
param *.node[*].appl.appTypeV2 5
param *.node[*].appl.appl.REPORT_VERSION 2
param *.node[*].appl.sendReportsV1 false
param *.node[*].appl.sendReportsV2 false
param *.node[*].appl.maHostV1 "\"localhost\""
param *.node[*].appl.maHostV2 "\"localhost\""
param *.node[*].appl.maPortV1 9980
param *.node[*].appl.maPortV2 9981
param *.node[*].appl.writeSelfMsg false
param *.node[*].appl.writeListSelfMsg false
param *.node[*].appl.writeBsmsV1 false
param *.node[*].appl.writeBsmsV2 false
param *.node[*].appl.writeListBsmsV1 true
param *.node[*].appl.writeListBsmsV2 true
param *.node[*].appl.writeReportsV1 false
param *.node[*].appl.writeReportsV2 false
param *.node[*].appl.writeListReportsV1 false
param *.node[*].appl.writeListReportsV2 false
param *.node[*].appl.writeVeReMi true
param *.node[*].appl.VeReMiSliceTime 3600
param *.node[*].appl.veremiConf true
param *.node[*].appl.randomConf false
param *.node[*].appl.variableConf false
param *.node[*].appl.confPos 10.0
param *.node[*].appl.confSpd 0.05
param *.node[*].appl.confHea 20.0
param *.node[*].appl.confAcc 0.01
param *.node[*].appl.confPrec 100.0
param *.node[*].appl.minConf 0.20
param *.node[*].appl.SAVE_PERIOD 10
param *.node[*].appl.PRINT_PERIOD 60
param *.node[*].appl.START_SAVE 0
param *.node[*].appl.START_ATTACK 0
param *.node[*].appl.enableVarThreV1 false
param *.node[*].appl.enableVarThreV2 false
param *.node[*].appl.MAX_PROXIMITY_RANGE_L 30
param *.node[*].appl.MAX_PROXIMITY_RANGE_W 3
param *.node[*].appl.MAX_PROXIMITY_DISTANCE 2
param *.node[*].appl.MAX_CONFIDENCE_RANGE 10
param *.node[*].appl.MAX_PLAUSIBLE_RANGE 420
param *.node[*].appl.MAX_TIME_DELTA 3.1
param *.node[*].appl.MAX_DELTA_INTER 2.0
param *.node[*].appl.MAX_SA_RANGE 420
param *.node[*].appl.MAX_SA_TIME 2.1
param *.node[*].appl.MAX_KALMAN_TIME 3.1
param *.node[*].appl.KALMAN_POS_RANGE 1.0
param *.node[*].appl.KALMAN_SPEED_RANGE 4.0
param *.node[*].appl.KALMAN_MIN_POS_RANGE 4.0
param *.node[*].appl.KALMAN_MIN_SPEED_RANGE 1.0
param *.node[*].appl.MIN_MAX_SPEED 40
param *.node[*].appl.MIN_MAX_ACCEL 3
param *.node[*].appl.MIN_MAX_DECEL 4.5
param *.node[*].appl.MAX_MGT_RNG 4
param *.node[*].appl.MAX_MGT_RNG_DOWN 6.2
param *.node[*].appl.MAX_MGT_RNG_UP 2.1
param *.node[*].appl.MAX_BEACON_FREQUENCY 0.99
param *.node[*].appl.MAX_DISTANCE_FROM_ROUTE 2
param *.node[*].appl.MAX_NON_ROUTE_SPEED -1
param *.node[*].appl.MAX_HEADING_CHANGE 90
param *.node[*].appl.DELTA_BSM_TIME 5
param *.node[*].appl.DELTA_REPORT_TIME 5
param *.node[*].appl.POS_HEADING_TIME 1.1
param *.node[*].appl.MAX_TARGET_TIME 2
param *.node[*].appl.MAX_ACCUSED_TIME 2
param *.node[*].appl.parVar 0.55
param *.node[*].appl.RandomPosOffsetX 70.0
param *.node[*].appl.RandomPosOffsetY 70.0
param *.node[*].appl.RandomSpeedX 40.0
param *.node[*].appl.RandomSpeedY 40.0
param *.node[*].appl.RandomSpeedOffsetX 7.0
param *.node[*].appl.RandomSpeedOffsetY 7.0
param *.node[*].appl.RandomAccelX 2.0
param *.node[*].appl.RandomAccelY 2.0
param *.node[*].appl.StopProb 0.05
param *.node[*].appl.StaleMessages_Buffer 60
param *.node[*].appl.DosMultipleFreq 4
param *.node[*].appl.DosMultipleFreqSybil 2
param *.node[*].appl.ReplaySeqNum 6
param *.node[*].appl.SybilVehNumber 5
param *.node[*].appl.SelfSybil false
param *.node[*].appl.SybilDistanceX 5
param *.node[*].appl.SybilDistanceY 2
param *.node[*].appl.MyConstantPos 1000
param *.node[*].appl.Period_Change_Time 240
param *.node[*].appl.Tolerance_Buffer 10
param *.node[*].appl.Period_Change_Distance 80
param *.node[*].appl.Random_Change_Chance 0.1
param *.node[*].appl.InitialHistory 5
param *.node[*].appl.CollectionPeriod 10
param *.node[*].appl.UntolerancePeriod 5
param *.node[*].veinsmobilityType.debug false
param *.node[*].veinsmobility.x 0
param *.node[*].veinsmobility.y 0
param *.node[*].veinsmobility.z 1.895
param *.node[*].veinsmobility.setHostSpeed true
param *.node[*].veinsmobility.setHostAcceleration true

scalar IRTSystemXScenario.node[0].appl generatedWSMs 0
scalar IRTSystemXScenario.node[0].appl receivedWSMs 0
scalar IRTSystemXScenario.node[0].appl generatedBSMs 14
scalar IRTSystemXScenario.node[0].appl receivedBSMs 5
scalar IRTSystemXScenario.node[0].appl generatedWSAs 0
scalar IRTSystemXScenario.node[0].appl receivedWSAs 0
scalar IRTSystemXScenario.node[0].nic.phy80211p busyTime 3.7142857142857e-05
scalar IRTSystemXScenario.node[0].nic.mac1609_4 ReceivedUnicastPackets 0
scalar IRTSystemXScenario.node[0].nic.mac1609_4 ReceivedBroadcasts 5
scalar IRTSystemXScenario.node[0].nic.mac1609_4 SentPackets 14
scalar IRTSystemXScenario.node[0].nic.mac1609_4 SentAcknowledgements 0
scalar IRTSystemXScenario.node[0].nic.mac1609_4 RetriesExceeded 0
scalar IRTSystemXScenario.node[0].nic.mac1609_4 SNIRLostPackets 0
scalar IRTSystemXScenario.node[0].nic.mac1609_4 RXTXLostPackets 0
scalar IRTSystemXScenario.node[0].nic.mac1609_4 TotalLostPackets 0
scalar IRTSystemXScenario.node[0].nic.mac1609_4 DroppedPacketsInMac 0
scalar IRTSystemXScenario.node[0].nic.mac1609_4 TooLittleTime 0
scalar IRTSystemXScenario.node[0].nic.mac1609_4 TimesIntoBackoff 14
scalar IRTSystemXScenario.node[0].nic.mac1609_4 SlotsBackoff 23
scalar IRTSystemXScenario.node[0].nic.mac1609_4 NumInternalContention 0
scalar IRTSystemXScenario.node[0].nic.mac1609_4 totalBusyTime 0.00199
scalar IRTSystemXScenario.node[0].nic.mac1609_4 retriesExceeded:count 0
attr source org_car2x_veins_modules_mac_sigRetriesExceeded
scalar IRTSystemXScenario.node[0].nic.mac1609_4 sentAcks:count 0
attr source org_car2x_veins_modules_mac_sigSentAck
scalar IRTSystemXScenario.node[0].nic.mac1609_4 sentPackets:count 14
attr source org_car2x_veins_modules_mac_sigSentPacket
scalar IRTSystemXScenario.node[0].nic.mac1609_4 collisions:count 0
attr source org_car2x_veins_modules_mac_sigCollision
scalar IRTSystemXScenario.node[0].nic.mac1609_4 channelBusy:timeavg 0.00014214285714286
attr source org_car2x_veins_modules_mac_sigChannelBusy
scalar IRTSystemXScenario.node[0].veinsmobility startTime 1
scalar IRTSystemXScenario.node[0].veinsmobility totalTime 13
scalar IRTSystemXScenario.node[0].veinsmobility stopTime 15
scalar IRTSystemXScenario.node[0].veinsmobility minSpeed 3.9997665032128
scalar IRTSystemXScenario.node[0].veinsmobility maxSpeed 15.482056763595
scalar IRTSystemXScenario.node[0].veinsmobility totalDistance 140.74516465622
scalar IRTSystemXScenario.node[0].veinsmobility totalCO2Emission 53.122797232681
scalar IRTSystemXScenario.node[8].appl generatedWSMs 0
scalar IRTSystemXScenario.node[8].appl receivedWSMs 0
scalar IRTSystemXScenario.node[8].appl generatedBSMs 23
scalar IRTSystemXScenario.node[8].appl receivedBSMs 36
scalar IRTSystemXScenario.node[8].appl generatedWSAs 0
scalar IRTSystemXScenario.node[8].appl receivedWSAs 0
scalar IRTSystemXScenario.node[8].nic.phy80211p busyTime 0.00016278260869565
scalar IRTSystemXScenario.node[8].nic.mac1609_4 ReceivedUnicastPackets 0
scalar IRTSystemXScenario.node[8].nic.mac1609_4 ReceivedBroadcasts 36
scalar IRTSystemXScenario.node[8].nic.mac1609_4 SentPackets 23
scalar IRTSystemXScenario.node[8].nic.mac1609_4 SentAcknowledgements 0
scalar IRTSystemXScenario.node[8].nic.mac1609_4 RetriesExceeded 0
scalar IRTSystemXScenario.node[8].nic.mac1609_4 SNIRLostPackets 0
scalar IRTSystemXScenario.node[8].nic.mac1609_4 RXTXLostPackets 0
scalar IRTSystemXScenario.node[8].nic.mac1609_4 TotalLostPackets 0
scalar IRTSystemXScenario.node[8].nic.mac1609_4 DroppedPacketsInMac 0
scalar IRTSystemXScenario.node[8].nic.mac1609_4 TooLittleTime 0
scalar IRTSystemXScenario.node[8].nic.mac1609_4 TimesIntoBackoff 23
scalar IRTSystemXScenario.node[8].nic.mac1609_4 SlotsBackoff 29
scalar IRTSystemXScenario.node[8].nic.mac1609_4 NumInternalContention 0
scalar IRTSystemXScenario.node[8].nic.mac1609_4 totalBusyTime 0.006159
scalar IRTSystemXScenario.node[8].nic.mac1609_4 retriesExceeded:count 0
attr source org_car2x_veins_modules_mac_sigRetriesExceeded
scalar IRTSystemXScenario.node[8].nic.mac1609_4 sentAcks:count 0
attr source org_car2x_veins_modules_mac_sigSentAck
scalar IRTSystemXScenario.node[8].nic.mac1609_4 sentPackets:count 23
attr source org_car2x_veins_modules_mac_sigSentPacket
scalar IRTSystemXScenario.node[8].nic.mac1609_4 collisions:count 0
attr source org_car2x_veins_modules_mac_sigCollision
scalar IRTSystemXScenario.node[8].nic.mac1609_4 channelBusy:timeavg 0.00026778260869565
attr source org_car2x_veins_modules_mac_sigChannelBusy
scalar IRTSystemXScenario.node[8].veinsmobility startTime 37
scalar IRTSystemXScenario.node[8].veinsmobility totalTime 22
scalar IRTSystemXScenario.node[8].veinsmobility stopTime 60
scalar IRTSystemXScenario.node[8].veinsmobility minSpeed 3.9814649254599
scalar IRTSystemXScenario.node[8].veinsmobility maxSpeed 16.833715233215
scalar IRTSystemXScenario.node[8].veinsmobility totalDistance 251.94370736322
scalar IRTSystemXScenario.node[8].veinsmobility totalCO2Emission 99.155727913718
scalar IRTSystemXScenario.node[5].appl generatedWSMs 0
scalar IRTSystemXScenario.node[5].appl receivedWSMs 0
scalar IRTSystemXScenario.node[5].appl generatedBSMs 43
scalar IRTSystemXScenario.node[5].appl receivedBSMs 44
scalar IRTSystemXScenario.node[5].appl generatedWSAs 0
scalar IRTSystemXScenario.node[5].appl receivedWSAs 0
scalar IRTSystemXScenario.node[5].nic.phy80211p busyTime 0.00010641860465116
scalar IRTSystemXScenario.node[5].nic.mac1609_4 ReceivedUnicastPackets 0
scalar IRTSystemXScenario.node[5].nic.mac1609_4 ReceivedBroadcasts 44
scalar IRTSystemXScenario.node[5].nic.mac1609_4 SentPackets 43
scalar IRTSystemXScenario.node[5].nic.mac1609_4 SentAcknowledgements 0
scalar IRTSystemXScenario.node[5].nic.mac1609_4 RetriesExceeded 0
scalar IRTSystemXScenario.node[5].nic.mac1609_4 SNIRLostPackets 0
scalar IRTSystemXScenario.node[5].nic.mac1609_4 RXTXLostPackets 0
scalar IRTSystemXScenario.node[5].nic.mac1609_4 TotalLostPackets 0
scalar IRTSystemXScenario.node[5].nic.mac1609_4 DroppedPacketsInMac 0
scalar IRTSystemXScenario.node[5].nic.mac1609_4 TooLittleTime 0
scalar IRTSystemXScenario.node[5].nic.mac1609_4 TimesIntoBackoff 43
scalar IRTSystemXScenario.node[5].nic.mac1609_4 SlotsBackoff 75
scalar IRTSystemXScenario.node[5].nic.mac1609_4 NumInternalContention 0
scalar IRTSystemXScenario.node[5].nic.mac1609_4 totalBusyTime 0.009091
scalar IRTSystemXScenario.node[5].nic.mac1609_4 retriesExceeded:count 0
attr source org_car2x_veins_modules_mac_sigRetriesExceeded
scalar IRTSystemXScenario.node[5].nic.mac1609_4 sentAcks:count 0
attr source org_car2x_veins_modules_mac_sigSentAck
scalar IRTSystemXScenario.node[5].nic.mac1609_4 sentPackets:count 43
attr source org_car2x_veins_modules_mac_sigSentPacket
scalar IRTSystemXScenario.node[5].nic.mac1609_4 collisions:count 0
attr source org_car2x_veins_modules_mac_sigCollision
scalar IRTSystemXScenario.node[5].nic.mac1609_4 channelBusy:timeavg 0.00021141860465116
attr source org_car2x_veins_modules_mac_sigChannelBusy
scalar IRTSystemXScenario.node[5].veinsmobility startTime 21
scalar IRTSystemXScenario.node[5].veinsmobility totalTime 42
scalar IRTSystemXScenario.node[5].veinsmobility stopTime 64
scalar IRTSystemXScenario.node[5].veinsmobility minSpeed 4.5935275062523
scalar IRTSystemXScenario.node[5].veinsmobility maxSpeed 12.938842573884
scalar IRTSystemXScenario.node[5].veinsmobility totalDistance 498.90024789335
scalar IRTSystemXScenario.node[5].veinsmobility totalCO2Emission 108.74120271763
scalar IRTSystemXScenario.node[3].appl generatedWSMs 0
scalar IRTSystemXScenario.node[3].appl receivedWSMs 0
scalar IRTSystemXScenario.node[3].appl generatedBSMs 57
scalar IRTSystemXScenario.node[3].appl receivedBSMs 52
scalar IRTSystemXScenario.node[3].appl generatedWSAs 0
scalar IRTSystemXScenario.node[3].appl receivedWSAs 0
scalar IRTSystemXScenario.node[3].nic.phy80211p busyTime 9.4877192982456e-05
scalar IRTSystemXScenario.node[3].nic.mac1609_4 ReceivedUnicastPackets 0
scalar IRTSystemXScenario.node[3].nic.mac1609_4 ReceivedBroadcasts 52
scalar IRTSystemXScenario.node[3].nic.mac1609_4 SentPackets 57
scalar IRTSystemXScenario.node[3].nic.mac1609_4 SentAcknowledgements 0
scalar IRTSystemXScenario.node[3].nic.mac1609_4 RetriesExceeded 0
scalar IRTSystemXScenario.node[3].nic.mac1609_4 SNIRLostPackets 0
scalar IRTSystemXScenario.node[3].nic.mac1609_4 RXTXLostPackets 0
scalar IRTSystemXScenario.node[3].nic.mac1609_4 TotalLostPackets 0
scalar IRTSystemXScenario.node[3].nic.mac1609_4 DroppedPacketsInMac 0
scalar IRTSystemXScenario.node[3].nic.mac1609_4 TooLittleTime 0
scalar IRTSystemXScenario.node[3].nic.mac1609_4 TimesIntoBackoff 57
scalar IRTSystemXScenario.node[3].nic.mac1609_4 SlotsBackoff 97
scalar IRTSystemXScenario.node[3].nic.mac1609_4 NumInternalContention 0
scalar IRTSystemXScenario.node[3].nic.mac1609_4 totalBusyTime 0.011393
scalar IRTSystemXScenario.node[3].nic.mac1609_4 retriesExceeded:count 0
attr source org_car2x_veins_modules_mac_sigRetriesExceeded
scalar IRTSystemXScenario.node[3].nic.mac1609_4 sentAcks:count 0
attr source org_car2x_veins_modules_mac_sigSentAck
scalar IRTSystemXScenario.node[3].nic.mac1609_4 sentPackets:count 57
attr source org_car2x_veins_modules_mac_sigSentPacket
scalar IRTSystemXScenario.node[3].nic.mac1609_4 collisions:count 0
attr source org_car2x_veins_modules_mac_sigCollision
scalar IRTSystemXScenario.node[3].nic.mac1609_4 channelBusy:timeavg 0.00019987719298246
attr source org_car2x_veins_modules_mac_sigChannelBusy
scalar IRTSystemXScenario.node[3].veinsmobility startTime 13
scalar IRTSystemXScenario.node[3].veinsmobility totalTime 56
scalar IRTSystemXScenario.node[3].veinsmobility stopTime 70
scalar IRTSystemXScenario.node[3].veinsmobility minSpeed 3.9688103431286
scalar IRTSystemXScenario.node[3].veinsmobility maxSpeed 14.641519621754
scalar IRTSystemXScenario.node[3].veinsmobility totalDistance 726.01548065815
scalar IRTSystemXScenario.node[3].veinsmobility totalCO2Emission 174.30382301431
scalar IRTSystemXScenario.node[2].appl generatedWSMs 0
scalar IRTSystemXScenario.node[2].appl receivedWSMs 0
scalar IRTSystemXScenario.node[2].appl generatedBSMs 79
scalar IRTSystemXScenario.node[2].appl receivedBSMs 160
scalar IRTSystemXScenario.node[2].appl generatedWSAs 0
scalar IRTSystemXScenario.node[2].appl receivedWSAs 0
scalar IRTSystemXScenario.node[2].nic.phy80211p busyTime 0.0002106329113924
scalar IRTSystemXScenario.node[2].nic.mac1609_4 ReceivedUnicastPackets 0
scalar IRTSystemXScenario.node[2].nic.mac1609_4 ReceivedBroadcasts 160
scalar IRTSystemXScenario.node[2].nic.mac1609_4 SentPackets 79
scalar IRTSystemXScenario.node[2].nic.mac1609_4 SentAcknowledgements 0
scalar IRTSystemXScenario.node[2].nic.mac1609_4 RetriesExceeded 0
scalar IRTSystemXScenario.node[2].nic.mac1609_4 SNIRLostPackets 0
scalar IRTSystemXScenario.node[2].nic.mac1609_4 RXTXLostPackets 0
scalar IRTSystemXScenario.node[2].nic.mac1609_4 TotalLostPackets 0
scalar IRTSystemXScenario.node[2].nic.mac1609_4 DroppedPacketsInMac 0
scalar IRTSystemXScenario.node[2].nic.mac1609_4 TooLittleTime 0
scalar IRTSystemXScenario.node[2].nic.mac1609_4 TimesIntoBackoff 79
scalar IRTSystemXScenario.node[2].nic.mac1609_4 SlotsBackoff 132
scalar IRTSystemXScenario.node[2].nic.mac1609_4 NumInternalContention 0
scalar IRTSystemXScenario.node[2].nic.mac1609_4 totalBusyTime 0.024935
scalar IRTSystemXScenario.node[2].nic.mac1609_4 retriesExceeded:count 0
attr source org_car2x_veins_modules_mac_sigRetriesExceeded
scalar IRTSystemXScenario.node[2].nic.mac1609_4 sentAcks:count 0
attr source org_car2x_veins_modules_mac_sigSentAck
scalar IRTSystemXScenario.node[2].nic.mac1609_4 sentPackets:count 79
attr source org_car2x_veins_modules_mac_sigSentPacket
scalar IRTSystemXScenario.node[2].nic.mac1609_4 collisions:count 0
attr source org_car2x_veins_modules_mac_sigCollision
scalar IRTSystemXScenario.node[2].nic.mac1609_4 channelBusy:timeavg 0.00031563291139241
attr source org_car2x_veins_modules_mac_sigChannelBusy
scalar IRTSystemXScenario.node[2].veinsmobility startTime 9
scalar IRTSystemXScenario.node[2].veinsmobility totalTime 78
scalar IRTSystemXScenario.node[2].veinsmobility stopTime 88
scalar IRTSystemXScenario.node[2].veinsmobility minSpeed 4.0433302277257
scalar IRTSystemXScenario.node[2].veinsmobility maxSpeed 13.129162995024
scalar IRTSystemXScenario.node[2].veinsmobility totalDistance 853.7984048321
scalar IRTSystemXScenario.node[2].veinsmobility totalCO2Emission 158.62342953437
scalar IRTSystemXScenario.node[15].appl generatedWSMs 0
scalar IRTSystemXScenario.node[15].appl receivedWSMs 0
scalar IRTSystemXScenario.node[15].appl generatedBSMs 46
scalar IRTSystemXScenario.node[15].appl receivedBSMs 173
scalar IRTSystemXScenario.node[15].appl generatedWSAs 0
scalar IRTSystemXScenario.node[15].appl receivedWSAs 0
scalar IRTSystemXScenario.node[15].nic.phy80211p busyTime 0.00039113043478261
scalar IRTSystemXScenario.node[15].nic.mac1609_4 ReceivedUnicastPackets 0
scalar IRTSystemXScenario.node[15].nic.mac1609_4 ReceivedBroadcasts 173
scalar IRTSystemXScenario.node[15].nic.mac1609_4 SentPackets 46
scalar IRTSystemXScenario.node[15].nic.mac1609_4 SentAcknowledgements 0
scalar IRTSystemXScenario.node[15].nic.mac1609_4 RetriesExceeded 0
scalar IRTSystemXScenario.node[15].nic.mac1609_4 SNIRLostPackets 0
scalar IRTSystemXScenario.node[15].nic.mac1609_4 RXTXLostPackets 0
scalar IRTSystemXScenario.node[15].nic.mac1609_4 TotalLostPackets 0
scalar IRTSystemXScenario.node[15].nic.mac1609_4 DroppedPacketsInMac 0
scalar IRTSystemXScenario.node[15].nic.mac1609_4 TooLittleTime 0
scalar IRTSystemXScenario.node[15].nic.mac1609_4 TimesIntoBackoff 46
scalar IRTSystemXScenario.node[15].nic.mac1609_4 SlotsBackoff 49
scalar IRTSystemXScenario.node[15].nic.mac1609_4 NumInternalContention 0
scalar IRTSystemXScenario.node[15].nic.mac1609_4 totalBusyTime 0.022822
scalar IRTSystemXScenario.node[15].nic.mac1609_4 retriesExceeded:count 0
attr source org_car2x_veins_modules_mac_sigRetriesExceeded
scalar IRTSystemXScenario.node[15].nic.mac1609_4 sentAcks:count 0
attr source org_car2x_veins_modules_mac_sigSentAck
scalar IRTSystemXScenario.node[15].nic.mac1609_4 sentPackets:count 46
attr source org_car2x_veins_modules_mac_sigSentPacket
scalar IRTSystemXScenario.node[15].nic.mac1609_4 collisions:count 0
attr source org_car2x_veins_modules_mac_sigCollision
scalar IRTSystemXScenario.node[15].nic.mac1609_4 channelBusy:timeavg 0.00049613043478261
attr source org_car2x_veins_modules_mac_sigChannelBusy
scalar IRTSystemXScenario.node[15].veinsmobility startTime 71
scalar IRTSystemXScenario.node[15].veinsmobility totalTime 45
scalar IRTSystemXScenario.node[15].veinsmobility stopTime 117
scalar IRTSystemXScenario.node[15].veinsmobility minSpeed 3.86576207155
scalar IRTSystemXScenario.node[15].veinsmobility maxSpeed 7.0193219163776
scalar IRTSystemXScenario.node[15].veinsmobility totalDistance 304.84285017216
scalar IRTSystemXScenario.node[15].veinsmobility totalCO2Emission 69.568826847924
scalar IRTSystemXScenario.node[9].appl generatedWSMs 0
scalar IRTSystemXScenario.node[9].appl receivedWSMs 0
scalar IRTSystemXScenario.node[9].appl generatedBSMs 94
scalar IRTSystemXScenario.node[9].appl receivedBSMs 365
scalar IRTSystemXScenario.node[9].appl generatedWSAs 0
scalar IRTSystemXScenario.node[9].appl receivedWSAs 0
scalar IRTSystemXScenario.node[9].nic.phy80211p busyTime 0.00040382978723404
scalar IRTSystemXScenario.node[9].nic.mac1609_4 ReceivedUnicastPackets 0
scalar IRTSystemXScenario.node[9].nic.mac1609_4 ReceivedBroadcasts 365
scalar IRTSystemXScenario.node[9].nic.mac1609_4 SentPackets 94
scalar IRTSystemXScenario.node[9].nic.mac1609_4 SentAcknowledgements 0
scalar IRTSystemXScenario.node[9].nic.mac1609_4 RetriesExceeded 0
scalar IRTSystemXScenario.node[9].nic.mac1609_4 SNIRLostPackets 0
scalar IRTSystemXScenario.node[9].nic.mac1609_4 RXTXLostPackets 0
scalar IRTSystemXScenario.node[9].nic.mac1609_4 TotalLostPackets 0
scalar IRTSystemXScenario.node[9].nic.mac1609_4 DroppedPacketsInMac 0
scalar IRTSystemXScenario.node[9].nic.mac1609_4 TooLittleTime 0
scalar IRTSystemXScenario.node[9].nic.mac1609_4 TimesIntoBackoff 94
scalar IRTSystemXScenario.node[9].nic.mac1609_4 SlotsBackoff 136
scalar IRTSystemXScenario.node[9].nic.mac1609_4 NumInternalContention 0
scalar IRTSystemXScenario.node[9].nic.mac1609_4 totalBusyTime 0.04783
scalar IRTSystemXScenario.node[9].nic.mac1609_4 retriesExceeded:count 0
attr source org_car2x_veins_modules_mac_sigRetriesExceeded
scalar IRTSystemXScenario.node[9].nic.mac1609_4 sentAcks:count 0
attr source org_car2x_veins_modules_mac_sigSentAck
scalar IRTSystemXScenario.node[9].nic.mac1609_4 sentPackets:count 94
attr source org_car2x_veins_modules_mac_sigSentPacket
scalar IRTSystemXScenario.node[9].nic.mac1609_4 collisions:count 0
attr source org_car2x_veins_modules_mac_sigCollision
scalar IRTSystemXScenario.node[9].nic.mac1609_4 channelBusy:timeavg 0.00050882978723404
attr source org_car2x_veins_modules_mac_sigChannelBusy
scalar IRTSystemXScenario.node[9].veinsmobility startTime 41
scalar IRTSystemXScenario.node[9].veinsmobility totalTime 93
scalar IRTSystemXScenario.node[9].veinsmobility stopTime 135
scalar IRTSystemXScenario.node[9].veinsmobility minSpeed 0
scalar IRTSystemXScenario.node[9].veinsmobility maxSpeed 26.240582928335
scalar IRTSystemXScenario.node[9].veinsmobility totalDistance 1024.7398947897
scalar IRTSystemXScenario.node[9].veinsmobility totalCO2Emission 275.87514975118
scalar IRTSystemXScenario.node[18].appl generatedWSMs 0
scalar IRTSystemXScenario.node[18].appl receivedWSMs 0
scalar IRTSystemXScenario.node[18].appl generatedBSMs 50
scalar IRTSystemXScenario.node[18].appl receivedBSMs 155
scalar IRTSystemXScenario.node[18].appl generatedWSAs 0
scalar IRTSystemXScenario.node[18].appl receivedWSAs 0
scalar IRTSystemXScenario.node[18].nic.phy80211p busyTime 0.0003224
scalar IRTSystemXScenario.node[18].nic.mac1609_4 ReceivedUnicastPackets 0
scalar IRTSystemXScenario.node[18].nic.mac1609_4 ReceivedBroadcasts 155
scalar IRTSystemXScenario.node[18].nic.mac1609_4 SentPackets 50
scalar IRTSystemXScenario.node[18].nic.mac1609_4 SentAcknowledgements 0
scalar IRTSystemXScenario.node[18].nic.mac1609_4 RetriesExceeded 0
scalar IRTSystemXScenario.node[18].nic.mac1609_4 SNIRLostPackets 0
scalar IRTSystemXScenario.node[18].nic.mac1609_4 RXTXLostPackets 0
scalar IRTSystemXScenario.node[18].nic.mac1609_4 TotalLostPackets 0
scalar IRTSystemXScenario.node[18].nic.mac1609_4 DroppedPacketsInMac 0
scalar IRTSystemXScenario.node[18].nic.mac1609_4 TooLittleTime 0
scalar IRTSystemXScenario.node[18].nic.mac1609_4 TimesIntoBackoff 50
scalar IRTSystemXScenario.node[18].nic.mac1609_4 SlotsBackoff 74
scalar IRTSystemXScenario.node[18].nic.mac1609_4 NumInternalContention 0
scalar IRTSystemXScenario.node[18].nic.mac1609_4 totalBusyTime 0.02137
scalar IRTSystemXScenario.node[18].nic.mac1609_4 retriesExceeded:count 0
attr source org_car2x_veins_modules_mac_sigRetriesExceeded
scalar IRTSystemXScenario.node[18].nic.mac1609_4 sentAcks:count 0
attr source org_car2x_veins_modules_mac_sigSentAck
scalar IRTSystemXScenario.node[18].nic.mac1609_4 sentPackets:count 50
attr source org_car2x_veins_modules_mac_sigSentPacket
scalar IRTSystemXScenario.node[18].nic.mac1609_4 collisions:count 0
attr source org_car2x_veins_modules_mac_sigCollision
scalar IRTSystemXScenario.node[18].nic.mac1609_4 channelBusy:timeavg 0.0004274
attr source org_car2x_veins_modules_mac_sigChannelBusy
scalar IRTSystemXScenario.node[18].veinsmobility startTime 86
scalar IRTSystemXScenario.node[18].veinsmobility totalTime 49
scalar IRTSystemXScenario.node[18].veinsmobility stopTime 136
scalar IRTSystemXScenario.node[18].veinsmobility minSpeed 3.69503786134
scalar IRTSystemXScenario.node[18].veinsmobility maxSpeed 13.124653573559
scalar IRTSystemXScenario.node[18].veinsmobility totalDistance 589.02215992993
scalar IRTSystemXScenario.node[18].veinsmobility totalCO2Emission 124.72947234077
scalar IRTSystemXScenario.node[10].appl generatedWSMs 0
scalar IRTSystemXScenario.node[10].appl receivedWSMs 0
scalar IRTSystemXScenario.node[10].appl generatedBSMs 109
scalar IRTSystemXScenario.node[10].appl receivedBSMs 462
scalar IRTSystemXScenario.node[10].appl generatedWSAs 0
scalar IRTSystemXScenario.node[10].appl receivedWSAs 0
scalar IRTSystemXScenario.node[10].nic.phy80211p busyTime 0.00044080733944954
scalar IRTSystemXScenario.node[10].nic.mac1609_4 ReceivedUnicastPackets 0
scalar IRTSystemXScenario.node[10].nic.mac1609_4 ReceivedBroadcasts 462
scalar IRTSystemXScenario.node[10].nic.mac1609_4 SentPackets 109
scalar IRTSystemXScenario.node[10].nic.mac1609_4 SentAcknowledgements 0
scalar IRTSystemXScenario.node[10].nic.mac1609_4 RetriesExceeded 0
scalar IRTSystemXScenario.node[10].nic.mac1609_4 SNIRLostPackets 0
scalar IRTSystemXScenario.node[10].nic.mac1609_4 RXTXLostPackets 0
scalar IRTSystemXScenario.node[10].nic.mac1609_4 TotalLostPackets 0
scalar IRTSystemXScenario.node[10].nic.mac1609_4 DroppedPacketsInMac 0
scalar IRTSystemXScenario.node[10].nic.mac1609_4 TooLittleTime 0
scalar IRTSystemXScenario.node[10].nic.mac1609_4 TimesIntoBackoff 109
scalar IRTSystemXScenario.node[10].nic.mac1609_4 SlotsBackoff 151
scalar IRTSystemXScenario.node[10].nic.mac1609_4 NumInternalContention 0
scalar IRTSystemXScenario.node[10].nic.mac1609_4 totalBusyTime 0.059493
scalar IRTSystemXScenario.node[10].nic.mac1609_4 retriesExceeded:count 0
attr source org_car2x_veins_modules_mac_sigRetriesExceeded
scalar IRTSystemXScenario.node[10].nic.mac1609_4 sentAcks:count 0
attr source org_car2x_veins_modules_mac_sigSentAck
scalar IRTSystemXScenario.node[10].nic.mac1609_4 sentPackets:count 109
attr source org_car2x_veins_modules_mac_sigSentPacket
scalar IRTSystemXScenario.node[10].nic.mac1609_4 collisions:count 0
attr source org_car2x_veins_modules_mac_sigCollision
scalar IRTSystemXScenario.node[10].nic.mac1609_4 channelBusy:timeavg 0.00054580733944954
attr source org_car2x_veins_modules_mac_sigChannelBusy
scalar IRTSystemXScenario.node[10].veinsmobility startTime 45
scalar IRTSystemXScenario.node[10].veinsmobility totalTime 108
scalar IRTSystemXScenario.node[10].veinsmobility stopTime 154
scalar IRTSystemXScenario.node[10].veinsmobility minSpeed 4.2252894673828
scalar IRTSystemXScenario.node[10].veinsmobility maxSpeed 22.307351508194
scalar IRTSystemXScenario.node[10].veinsmobility totalDistance 1154.0587403356
scalar IRTSystemXScenario.node[10].veinsmobility totalCO2Emission 270.13649661775
scalar IRTSystemXScenario.node[1].appl generatedWSMs 0
scalar IRTSystemXScenario.node[1].appl receivedWSMs 0
scalar IRTSystemXScenario.node[1].appl generatedBSMs 158
scalar IRTSystemXScenario.node[1].appl receivedBSMs 267
scalar IRTSystemXScenario.node[1].appl generatedWSAs 0
scalar IRTSystemXScenario.node[1].appl receivedWSAs 0
scalar IRTSystemXScenario.node[1].nic.phy80211p busyTime 0.00017574683544304
scalar IRTSystemXScenario.node[1].nic.mac1609_4 ReceivedUnicastPackets 0
scalar IRTSystemXScenario.node[1].nic.mac1609_4 ReceivedBroadcasts 267
scalar IRTSystemXScenario.node[1].nic.mac1609_4 SentPackets 158
scalar IRTSystemXScenario.node[1].nic.mac1609_4 SentAcknowledgements 0
scalar IRTSystemXScenario.node[1].nic.mac1609_4 RetriesExceeded 0
scalar IRTSystemXScenario.node[1].nic.mac1609_4 SNIRLostPackets 0
scalar IRTSystemXScenario.node[1].nic.mac1609_4 RXTXLostPackets 0
scalar IRTSystemXScenario.node[1].nic.mac1609_4 TotalLostPackets 0
scalar IRTSystemXScenario.node[1].nic.mac1609_4 DroppedPacketsInMac 0
scalar IRTSystemXScenario.node[1].nic.mac1609_4 TooLittleTime 0
scalar IRTSystemXScenario.node[1].nic.mac1609_4 TimesIntoBackoff 158
scalar IRTSystemXScenario.node[1].nic.mac1609_4 SlotsBackoff 249
scalar IRTSystemXScenario.node[1].nic.mac1609_4 NumInternalContention 0
scalar IRTSystemXScenario.node[1].nic.mac1609_4 totalBusyTime 0.044358
scalar IRTSystemXScenario.node[1].nic.mac1609_4 retriesExceeded:count 0
attr source org_car2x_veins_modules_mac_sigRetriesExceeded
scalar IRTSystemXScenario.node[1].nic.mac1609_4 sentAcks:count 0
attr source org_car2x_veins_modules_mac_sigSentAck
scalar IRTSystemXScenario.node[1].nic.mac1609_4 sentPackets:count 158
attr source org_car2x_veins_modules_mac_sigSentPacket
scalar IRTSystemXScenario.node[1].nic.mac1609_4 collisions:count 0
attr source org_car2x_veins_modules_mac_sigCollision
scalar IRTSystemXScenario.node[1].nic.mac1609_4 channelBusy:timeavg 0.00028074683544304
attr source org_car2x_veins_modules_mac_sigChannelBusy
scalar IRTSystemXScenario.node[1].veinsmobility startTime 5
scalar IRTSystemXScenario.node[1].veinsmobility totalTime 157
scalar IRTSystemXScenario.node[1].veinsmobility stopTime 163
scalar IRTSystemXScenario.node[1].veinsmobility minSpeed 4.0030390066499
scalar IRTSystemXScenario.node[1].veinsmobility maxSpeed 22.884866407972
scalar IRTSystemXScenario.node[1].veinsmobility totalDistance 1779.7380456508
scalar IRTSystemXScenario.node[1].veinsmobility totalCO2Emission 385.59294821481
scalar IRTSystemXScenario.node[13].appl generatedWSMs 0
scalar IRTSystemXScenario.node[13].appl receivedWSMs 0
scalar IRTSystemXScenario.node[13].appl generatedBSMs 110
scalar IRTSystemXScenario.node[13].appl receivedBSMs 564
scalar IRTSystemXScenario.node[13].appl generatedWSAs 0
scalar IRTSystemXScenario.node[13].appl receivedWSAs 0
scalar IRTSystemXScenario.node[13].nic.phy80211p busyTime 0.00053323636363636
scalar IRTSystemXScenario.node[13].nic.mac1609_4 ReceivedUnicastPackets 0
scalar IRTSystemXScenario.node[13].nic.mac1609_4 ReceivedBroadcasts 564
scalar IRTSystemXScenario.node[13].nic.mac1609_4 SentPackets 110
scalar IRTSystemXScenario.node[13].nic.mac1609_4 SentAcknowledgements 0
scalar IRTSystemXScenario.node[13].nic.mac1609_4 RetriesExceeded 0
scalar IRTSystemXScenario.node[13].nic.mac1609_4 SNIRLostPackets 0
scalar IRTSystemXScenario.node[13].nic.mac1609_4 RXTXLostPackets 0
scalar IRTSystemXScenario.node[13].nic.mac1609_4 TotalLostPackets 0
scalar IRTSystemXScenario.node[13].nic.mac1609_4 DroppedPacketsInMac 0
scalar IRTSystemXScenario.node[13].nic.mac1609_4 TooLittleTime 0
scalar IRTSystemXScenario.node[13].nic.mac1609_4 TimesIntoBackoff 110
scalar IRTSystemXScenario.node[13].nic.mac1609_4 SlotsBackoff 165
scalar IRTSystemXScenario.node[13].nic.mac1609_4 NumInternalContention 0
scalar IRTSystemXScenario.node[13].nic.mac1609_4 totalBusyTime 0.070206
scalar IRTSystemXScenario.node[13].nic.mac1609_4 retriesExceeded:count 0
attr source org_car2x_veins_modules_mac_sigRetriesExceeded
scalar IRTSystemXScenario.node[13].nic.mac1609_4 sentAcks:count 0
attr source org_car2x_veins_modules_mac_sigSentAck
scalar IRTSystemXScenario.node[13].nic.mac1609_4 sentPackets:count 110
attr source org_car2x_veins_modules_mac_sigSentPacket
scalar IRTSystemXScenario.node[13].nic.mac1609_4 collisions:count 0
attr source org_car2x_veins_modules_mac_sigCollision
scalar IRTSystemXScenario.node[13].nic.mac1609_4 channelBusy:timeavg 0.00063823636363637
attr source org_car2x_veins_modules_mac_sigChannelBusy
scalar IRTSystemXScenario.node[13].veinsmobility startTime 57
scalar IRTSystemXScenario.node[13].veinsmobility totalTime 109
scalar IRTSystemXScenario.node[13].veinsmobility stopTime 167
scalar IRTSystemXScenario.node[13].veinsmobility minSpeed 0
scalar IRTSystemXScenario.node[13].veinsmobility maxSpeed 14.373488571284
scalar IRTSystemXScenario.node[13].veinsmobility totalDistance 904.73892928012
scalar IRTSystemXScenario.node[13].veinsmobility totalCO2Emission 207.54554098809
scalar IRTSystemXScenario.node[4].appl generatedWSMs 0
scalar IRTSystemXScenario.node[4].appl receivedWSMs 0
scalar IRTSystemXScenario.node[4].appl generatedBSMs 158
scalar IRTSystemXScenario.node[4].appl receivedBSMs 613
scalar IRTSystemXScenario.node[4].appl generatedWSAs 0
scalar IRTSystemXScenario.node[4].appl receivedWSAs 0
scalar IRTSystemXScenario.node[4].nic.phy80211p busyTime 0.00040349367088608
scalar IRTSystemXScenario.node[4].nic.mac1609_4 ReceivedUnicastPackets 0
scalar IRTSystemXScenario.node[4].nic.mac1609_4 ReceivedBroadcasts 613
scalar IRTSystemXScenario.node[4].nic.mac1609_4 SentPackets 158
scalar IRTSystemXScenario.node[4].nic.mac1609_4 SentAcknowledgements 0
scalar IRTSystemXScenario.node[4].nic.mac1609_4 RetriesExceeded 0
scalar IRTSystemXScenario.node[4].nic.mac1609_4 SNIRLostPackets 0
scalar IRTSystemXScenario.node[4].nic.mac1609_4 RXTXLostPackets 0
scalar IRTSystemXScenario.node[4].nic.mac1609_4 TotalLostPackets 0
scalar IRTSystemXScenario.node[4].nic.mac1609_4 DroppedPacketsInMac 0
scalar IRTSystemXScenario.node[4].nic.mac1609_4 TooLittleTime 0
scalar IRTSystemXScenario.node[4].nic.mac1609_4 TimesIntoBackoff 158
scalar IRTSystemXScenario.node[4].nic.mac1609_4 SlotsBackoff 239
scalar IRTSystemXScenario.node[4].nic.mac1609_4 NumInternalContention 0
scalar IRTSystemXScenario.node[4].nic.mac1609_4 totalBusyTime 0.080342
scalar IRTSystemXScenario.node[4].nic.mac1609_4 retriesExceeded:count 0
attr source org_car2x_veins_modules_mac_sigRetriesExceeded
scalar IRTSystemXScenario.node[4].nic.mac1609_4 sentAcks:count 0
attr source org_car2x_veins_modules_mac_sigSentAck
scalar IRTSystemXScenario.node[4].nic.mac1609_4 sentPackets:count 158
attr source org_car2x_veins_modules_mac_sigSentPacket
scalar IRTSystemXScenario.node[4].nic.mac1609_4 collisions:count 0
attr source org_car2x_veins_modules_mac_sigCollision
scalar IRTSystemXScenario.node[4].nic.mac1609_4 channelBusy:timeavg 0.00050849367088608
attr source org_car2x_veins_modules_mac_sigChannelBusy
scalar IRTSystemXScenario.node[4].veinsmobility startTime 17
scalar IRTSystemXScenario.node[4].veinsmobility totalTime 157
scalar IRTSystemXScenario.node[4].veinsmobility stopTime 175
scalar IRTSystemXScenario.node[4].veinsmobility minSpeed 0
scalar IRTSystemXScenario.node[4].veinsmobility maxSpeed 24.92777669301
scalar IRTSystemXScenario.node[4].veinsmobility totalDistance 1195.8047470809
scalar IRTSystemXScenario.node[4].veinsmobility totalCO2Emission 349.52256723212
scalar IRTSystemXScenario.node[17].appl generatedWSMs 0
scalar IRTSystemXScenario.node[17].appl receivedWSMs 0
scalar IRTSystemXScenario.node[17].appl generatedBSMs 96
scalar IRTSystemXScenario.node[17].appl receivedBSMs 398
scalar IRTSystemXScenario.node[17].appl generatedWSAs 0
scalar IRTSystemXScenario.node[17].appl receivedWSAs 0
scalar IRTSystemXScenario.node[17].nic.phy80211p busyTime 0.00043116666666667
scalar IRTSystemXScenario.node[17].nic.mac1609_4 ReceivedUnicastPackets 0
scalar IRTSystemXScenario.node[17].nic.mac1609_4 ReceivedBroadcasts 398
scalar IRTSystemXScenario.node[17].nic.mac1609_4 SentPackets 96
scalar IRTSystemXScenario.node[17].nic.mac1609_4 SentAcknowledgements 0
scalar IRTSystemXScenario.node[17].nic.mac1609_4 RetriesExceeded 0
scalar IRTSystemXScenario.node[17].nic.mac1609_4 SNIRLostPackets 0
scalar IRTSystemXScenario.node[17].nic.mac1609_4 RXTXLostPackets 0
scalar IRTSystemXScenario.node[17].nic.mac1609_4 TotalLostPackets 0
scalar IRTSystemXScenario.node[17].nic.mac1609_4 DroppedPacketsInMac 0
scalar IRTSystemXScenario.node[17].nic.mac1609_4 TooLittleTime 0
scalar IRTSystemXScenario.node[17].nic.mac1609_4 TimesIntoBackoff 96
scalar IRTSystemXScenario.node[17].nic.mac1609_4 SlotsBackoff 159
scalar IRTSystemXScenario.node[17].nic.mac1609_4 NumInternalContention 0
scalar IRTSystemXScenario.node[17].nic.mac1609_4 totalBusyTime 0.051472
scalar IRTSystemXScenario.node[17].nic.mac1609_4 retriesExceeded:count 0
attr source org_car2x_veins_modules_mac_sigRetriesExceeded
scalar IRTSystemXScenario.node[17].nic.mac1609_4 sentAcks:count 0
attr source org_car2x_veins_modules_mac_sigSentAck
scalar IRTSystemXScenario.node[17].nic.mac1609_4 sentPackets:count 96
attr source org_car2x_veins_modules_mac_sigSentPacket
scalar IRTSystemXScenario.node[17].nic.mac1609_4 collisions:count 0
attr source org_car2x_veins_modules_mac_sigCollision
scalar IRTSystemXScenario.node[17].nic.mac1609_4 channelBusy:timeavg 0.00053616666666667
attr source org_car2x_veins_modules_mac_sigChannelBusy
scalar IRTSystemXScenario.node[17].veinsmobility startTime 81
scalar IRTSystemXScenario.node[17].veinsmobility totalTime 95
scalar IRTSystemXScenario.node[17].veinsmobility stopTime 177
scalar IRTSystemXScenario.node[17].veinsmobility minSpeed 4.0711300225884
scalar IRTSystemXScenario.node[17].veinsmobility maxSpeed 23.334926675166
scalar IRTSystemXScenario.node[17].veinsmobility totalDistance 1209.2931667185
scalar IRTSystemXScenario.node[17].veinsmobility totalCO2Emission 357.60562465885
scalar IRTSystemXScenario.node[6].appl generatedWSMs 0
scalar IRTSystemXScenario.node[6].appl receivedWSMs 0
scalar IRTSystemXScenario.node[6].appl generatedBSMs 153
scalar IRTSystemXScenario.node[6].appl receivedBSMs 632
scalar IRTSystemXScenario.node[6].appl generatedWSAs 0
scalar IRTSystemXScenario.node[6].appl receivedWSAs 0
scalar IRTSystemXScenario.node[6].nic.phy80211p busyTime 0.00042959477124183
scalar IRTSystemXScenario.node[6].nic.mac1609_4 ReceivedUnicastPackets 0
scalar IRTSystemXScenario.node[6].nic.mac1609_4 ReceivedBroadcasts 632
scalar IRTSystemXScenario.node[6].nic.mac1609_4 SentPackets 153
scalar IRTSystemXScenario.node[6].nic.mac1609_4 SentAcknowledgements 0
scalar IRTSystemXScenario.node[6].nic.mac1609_4 RetriesExceeded 0
scalar IRTSystemXScenario.node[6].nic.mac1609_4 SNIRLostPackets 0
scalar IRTSystemXScenario.node[6].nic.mac1609_4 RXTXLostPackets 0
scalar IRTSystemXScenario.node[6].nic.mac1609_4 TotalLostPackets 0
scalar IRTSystemXScenario.node[6].nic.mac1609_4 DroppedPacketsInMac 0
scalar IRTSystemXScenario.node[6].nic.mac1609_4 TooLittleTime 0
scalar IRTSystemXScenario.node[6].nic.mac1609_4 TimesIntoBackoff 153
scalar IRTSystemXScenario.node[6].nic.mac1609_4 SlotsBackoff 222
scalar IRTSystemXScenario.node[6].nic.mac1609_4 NumInternalContention 0
scalar IRTSystemXScenario.node[6].nic.mac1609_4 totalBusyTime 0.081793
scalar IRTSystemXScenario.node[6].nic.mac1609_4 retriesExceeded:count 0
attr source org_car2x_veins_modules_mac_sigRetriesExceeded
scalar IRTSystemXScenario.node[6].nic.mac1609_4 sentAcks:count 0
attr source org_car2x_veins_modules_mac_sigSentAck
scalar IRTSystemXScenario.node[6].nic.mac1609_4 sentPackets:count 153
attr source org_car2x_veins_modules_mac_sigSentPacket
scalar IRTSystemXScenario.node[6].nic.mac1609_4 collisions:count 0
attr source org_car2x_veins_modules_mac_sigCollision
scalar IRTSystemXScenario.node[6].nic.mac1609_4 channelBusy:timeavg 0.00053459477124184
attr source org_car2x_veins_modules_mac_sigChannelBusy
scalar IRTSystemXScenario.node[6].veinsmobility startTime 27
scalar IRTSystemXScenario.node[6].veinsmobility totalTime 152
scalar IRTSystemXScenario.node[6].veinsmobility stopTime 180
scalar IRTSystemXScenario.node[6].veinsmobility minSpeed 0
scalar IRTSystemXScenario.node[6].veinsmobility maxSpeed 23.051045446756
scalar IRTSystemXScenario.node[6].veinsmobility totalDistance 1097.1315138299
scalar IRTSystemXScenario.node[6].veinsmobility totalCO2Emission 317.67067905582
scalar IRTSystemXScenario.node[25].appl generatedWSMs 0
scalar IRTSystemXScenario.node[25].appl receivedWSMs 0
scalar IRTSystemXScenario.node[25].appl generatedBSMs 69
scalar IRTSystemXScenario.node[25].appl receivedBSMs 316
scalar IRTSystemXScenario.node[25].appl generatedWSAs 0
scalar IRTSystemXScenario.node[25].appl receivedWSAs 0
scalar IRTSystemXScenario.node[25].nic.phy80211p busyTime 0.00047628985507246
scalar IRTSystemXScenario.node[25].nic.mac1609_4 ReceivedUnicastPackets 0
scalar IRTSystemXScenario.node[25].nic.mac1609_4 ReceivedBroadcasts 316
scalar IRTSystemXScenario.node[25].nic.mac1609_4 SentPackets 69
scalar IRTSystemXScenario.node[25].nic.mac1609_4 SentAcknowledgements 0
scalar IRTSystemXScenario.node[25].nic.mac1609_4 RetriesExceeded 0
scalar IRTSystemXScenario.node[25].nic.mac1609_4 SNIRLostPackets 0
scalar IRTSystemXScenario.node[25].nic.mac1609_4 RXTXLostPackets 0
scalar IRTSystemXScenario.node[25].nic.mac1609_4 TotalLostPackets 0
scalar IRTSystemXScenario.node[25].nic.mac1609_4 DroppedPacketsInMac 0
scalar IRTSystemXScenario.node[25].nic.mac1609_4 TooLittleTime 0
scalar IRTSystemXScenario.node[25].nic.mac1609_4 TimesIntoBackoff 69
scalar IRTSystemXScenario.node[25].nic.mac1609_4 SlotsBackoff 83
scalar IRTSystemXScenario.node[25].nic.mac1609_4 NumInternalContention 0
scalar IRTSystemXScenario.node[25].nic.mac1609_4 totalBusyTime 0.040109
scalar IRTSystemXScenario.node[25].nic.mac1609_4 retriesExceeded:count 0
attr source org_car2x_veins_modules_mac_sigRetriesExceeded
scalar IRTSystemXScenario.node[25].nic.mac1609_4 sentAcks:count 0
attr source org_car2x_veins_modules_mac_sigSentAck
scalar IRTSystemXScenario.node[25].nic.mac1609_4 sentPackets:count 69
attr source org_car2x_veins_modules_mac_sigSentPacket
scalar IRTSystemXScenario.node[25].nic.mac1609_4 collisions:count 0
attr source org_car2x_veins_modules_mac_sigCollision
scalar IRTSystemXScenario.node[25].nic.mac1609_4 channelBusy:timeavg 0.00058128985507246
attr source org_car2x_veins_modules_mac_sigChannelBusy
scalar IRTSystemXScenario.node[25].veinsmobility startTime 122
scalar IRTSystemXScenario.node[25].veinsmobility totalTime 68
scalar IRTSystemXScenario.node[25].veinsmobility stopTime 191
scalar IRTSystemXScenario.node[25].veinsmobility minSpeed 0
scalar IRTSystemXScenario.node[25].veinsmobility maxSpeed 20.57606852157
scalar IRTSystemXScenario.node[25].veinsmobility totalDistance 713.90062918206
scalar IRTSystemXScenario.node[25].veinsmobility totalCO2Emission 227.97895391426
scalar IRTSystemXScenario.node[7].appl generatedWSMs 0
scalar IRTSystemXScenario.node[7].appl receivedWSMs 0
scalar IRTSystemXScenario.node[7].appl generatedBSMs 173
scalar IRTSystemXScenario.node[7].appl receivedBSMs 591
scalar IRTSystemXScenario.node[7].appl generatedWSAs 0
scalar IRTSystemXScenario.node[7].appl receivedWSAs 0
scalar IRTSystemXScenario.node[7].nic.phy80211p busyTime 0.00035528323699422
scalar IRTSystemXScenario.node[7].nic.mac1609_4 ReceivedUnicastPackets 0
scalar IRTSystemXScenario.node[7].nic.mac1609_4 ReceivedBroadcasts 591
scalar IRTSystemXScenario.node[7].nic.mac1609_4 SentPackets 173
scalar IRTSystemXScenario.node[7].nic.mac1609_4 SentAcknowledgements 0
scalar IRTSystemXScenario.node[7].nic.mac1609_4 RetriesExceeded 0
scalar IRTSystemXScenario.node[7].nic.mac1609_4 SNIRLostPackets 0
scalar IRTSystemXScenario.node[7].nic.mac1609_4 RXTXLostPackets 0
scalar IRTSystemXScenario.node[7].nic.mac1609_4 TotalLostPackets 0
scalar IRTSystemXScenario.node[7].nic.mac1609_4 DroppedPacketsInMac 0
scalar IRTSystemXScenario.node[7].nic.mac1609_4 TooLittleTime 0
scalar IRTSystemXScenario.node[7].nic.mac1609_4 TimesIntoBackoff 173
scalar IRTSystemXScenario.node[7].nic.mac1609_4 SlotsBackoff 253
scalar IRTSystemXScenario.node[7].nic.mac1609_4 NumInternalContention 0
scalar IRTSystemXScenario.node[7].nic.mac1609_4 totalBusyTime 0.079629
scalar IRTSystemXScenario.node[7].nic.mac1609_4 retriesExceeded:count 0
attr source org_car2x_veins_modules_mac_sigRetriesExceeded
scalar IRTSystemXScenario.node[7].nic.mac1609_4 sentAcks:count 0
attr source org_car2x_veins_modules_mac_sigSentAck
scalar IRTSystemXScenario.node[7].nic.mac1609_4 sentPackets:count 173
attr source org_car2x_veins_modules_mac_sigSentPacket
scalar IRTSystemXScenario.node[7].nic.mac1609_4 collisions:count 0
attr source org_car2x_veins_modules_mac_sigCollision
scalar IRTSystemXScenario.node[7].nic.mac1609_4 channelBusy:timeavg 0.00046028323699422
attr source org_car2x_veins_modules_mac_sigChannelBusy
scalar IRTSystemXScenario.node[7].veinsmobility startTime 31
scalar IRTSystemXScenario.node[7].veinsmobility totalTime 172
scalar IRTSystemXScenario.node[7].veinsmobility stopTime 204
scalar IRTSystemXScenario.node[7].veinsmobility minSpeed 0
scalar IRTSystemXScenario.node[7].veinsmobility maxSpeed 14.682010107356
scalar IRTSystemXScenario.node[7].veinsmobility totalDistance 1049.9604352511
scalar IRTSystemXScenario.node[7].veinsmobility totalCO2Emission 317.20634022249
scalar IRTSystemXScenario.node[12].appl generatedWSMs 0
scalar IRTSystemXScenario.node[12].appl receivedWSMs 0
scalar IRTSystemXScenario.node[12].appl generatedBSMs 151
scalar IRTSystemXScenario.node[12].appl receivedBSMs 574
scalar IRTSystemXScenario.node[12].appl generatedWSAs 0
scalar IRTSystemXScenario.node[12].appl receivedWSAs 0
scalar IRTSystemXScenario.node[12].nic.phy80211p busyTime 0.00039533774834437
scalar IRTSystemXScenario.node[12].nic.mac1609_4 ReceivedUnicastPackets 0
scalar IRTSystemXScenario.node[12].nic.mac1609_4 ReceivedBroadcasts 574
scalar IRTSystemXScenario.node[12].nic.mac1609_4 SentPackets 151
scalar IRTSystemXScenario.node[12].nic.mac1609_4 SentAcknowledgements 0
scalar IRTSystemXScenario.node[12].nic.mac1609_4 RetriesExceeded 0
scalar IRTSystemXScenario.node[12].nic.mac1609_4 SNIRLostPackets 0
scalar IRTSystemXScenario.node[12].nic.mac1609_4 RXTXLostPackets 0
scalar IRTSystemXScenario.node[12].nic.mac1609_4 TotalLostPackets 0
scalar IRTSystemXScenario.node[12].nic.mac1609_4 DroppedPacketsInMac 0
scalar IRTSystemXScenario.node[12].nic.mac1609_4 TooLittleTime 0
scalar IRTSystemXScenario.node[12].nic.mac1609_4 TimesIntoBackoff 151
scalar IRTSystemXScenario.node[12].nic.mac1609_4 SlotsBackoff 211
scalar IRTSystemXScenario.node[12].nic.mac1609_4 NumInternalContention 0
scalar IRTSystemXScenario.node[12].nic.mac1609_4 totalBusyTime 0.075551
scalar IRTSystemXScenario.node[12].nic.mac1609_4 retriesExceeded:count 0
attr source org_car2x_veins_modules_mac_sigRetriesExceeded
scalar IRTSystemXScenario.node[12].nic.mac1609_4 sentAcks:count 0
attr source org_car2x_veins_modules_mac_sigSentAck
scalar IRTSystemXScenario.node[12].nic.mac1609_4 sentPackets:count 151
attr source org_car2x_veins_modules_mac_sigSentPacket
scalar IRTSystemXScenario.node[12].nic.mac1609_4 collisions:count 0
attr source org_car2x_veins_modules_mac_sigCollision
scalar IRTSystemXScenario.node[12].nic.mac1609_4 channelBusy:timeavg 0.00050033774834438
attr source org_car2x_veins_modules_mac_sigChannelBusy
scalar IRTSystemXScenario.node[12].veinsmobility startTime 53
scalar IRTSystemXScenario.node[12].veinsmobility totalTime 150
scalar IRTSystemXScenario.node[12].veinsmobility stopTime 204
scalar IRTSystemXScenario.node[12].veinsmobility minSpeed 0
scalar IRTSystemXScenario.node[12].veinsmobility maxSpeed 21.69611984829
scalar IRTSystemXScenario.node[12].veinsmobility totalDistance 1157.4656980379
scalar IRTSystemXScenario.node[12].veinsmobility totalCO2Emission 332.08057848197
scalar IRTSystemXScenario.node[23].appl generatedWSMs 0
scalar IRTSystemXScenario.node[23].appl receivedWSMs 0
scalar IRTSystemXScenario.node[23].appl generatedBSMs 104
scalar IRTSystemXScenario.node[23].appl receivedBSMs 528
scalar IRTSystemXScenario.node[23].appl generatedWSAs 0
scalar IRTSystemXScenario.node[23].appl receivedWSAs 0
scalar IRTSystemXScenario.node[23].nic.phy80211p busyTime 0.000528
scalar IRTSystemXScenario.node[23].nic.mac1609_4 ReceivedUnicastPackets 0
scalar IRTSystemXScenario.node[23].nic.mac1609_4 ReceivedBroadcasts 528
scalar IRTSystemXScenario.node[23].nic.mac1609_4 SentPackets 104
scalar IRTSystemXScenario.node[23].nic.mac1609_4 SentAcknowledgements 0
scalar IRTSystemXScenario.node[23].nic.mac1609_4 RetriesExceeded 0
scalar IRTSystemXScenario.node[23].nic.mac1609_4 SNIRLostPackets 0
scalar IRTSystemXScenario.node[23].nic.mac1609_4 RXTXLostPackets 0
scalar IRTSystemXScenario.node[23].nic.mac1609_4 TotalLostPackets 0
scalar IRTSystemXScenario.node[23].nic.mac1609_4 DroppedPacketsInMac 0
scalar IRTSystemXScenario.node[23].nic.mac1609_4 TooLittleTime 0
scalar IRTSystemXScenario.node[23].nic.mac1609_4 TimesIntoBackoff 104
scalar IRTSystemXScenario.node[23].nic.mac1609_4 SlotsBackoff 146
scalar IRTSystemXScenario.node[23].nic.mac1609_4 NumInternalContention 0
scalar IRTSystemXScenario.node[23].nic.mac1609_4 totalBusyTime 0.065832
scalar IRTSystemXScenario.node[23].nic.mac1609_4 retriesExceeded:count 0
attr source org_car2x_veins_modules_mac_sigRetriesExceeded
scalar IRTSystemXScenario.node[23].nic.mac1609_4 sentAcks:count 0
attr source org_car2x_veins_modules_mac_sigSentAck
scalar IRTSystemXScenario.node[23].nic.mac1609_4 sentPackets:count 104
attr source org_car2x_veins_modules_mac_sigSentPacket
scalar IRTSystemXScenario.node[23].nic.mac1609_4 collisions:count 0
attr source org_car2x_veins_modules_mac_sigCollision
scalar IRTSystemXScenario.node[23].nic.mac1609_4 channelBusy:timeavg 0.000633
attr source org_car2x_veins_modules_mac_sigChannelBusy
scalar IRTSystemXScenario.node[23].veinsmobility startTime 107
scalar IRTSystemXScenario.node[23].veinsmobility totalTime 103
scalar IRTSystemXScenario.node[23].veinsmobility stopTime 211
scalar IRTSystemXScenario.node[23].veinsmobility minSpeed 3.2123563340143
scalar IRTSystemXScenario.node[23].veinsmobility maxSpeed 18.83052485831
scalar IRTSystemXScenario.node[23].veinsmobility totalDistance 848.0124254591
scalar IRTSystemXScenario.node[23].veinsmobility totalCO2Emission 209.20065051987
scalar IRTSystemXScenario.node[22].appl generatedWSMs 0
scalar IRTSystemXScenario.node[22].appl receivedWSMs 0
scalar IRTSystemXScenario.node[22].appl generatedBSMs 113
scalar IRTSystemXScenario.node[22].appl receivedBSMs 400
scalar IRTSystemXScenario.node[22].appl generatedWSAs 0
scalar IRTSystemXScenario.node[22].appl receivedWSAs 0
scalar IRTSystemXScenario.node[22].nic.phy80211p busyTime 0.00036814159292035
scalar IRTSystemXScenario.node[22].nic.mac1609_4 ReceivedUnicastPackets 0
scalar IRTSystemXScenario.node[22].nic.mac1609_4 ReceivedBroadcasts 400
scalar IRTSystemXScenario.node[22].nic.mac1609_4 SentPackets 113
scalar IRTSystemXScenario.node[22].nic.mac1609_4 SentAcknowledgements 0
scalar IRTSystemXScenario.node[22].nic.mac1609_4 RetriesExceeded 0
scalar IRTSystemXScenario.node[22].nic.mac1609_4 SNIRLostPackets 0
scalar IRTSystemXScenario.node[22].nic.mac1609_4 RXTXLostPackets 0
scalar IRTSystemXScenario.node[22].nic.mac1609_4 TotalLostPackets 0
scalar IRTSystemXScenario.node[22].nic.mac1609_4 DroppedPacketsInMac 0
scalar IRTSystemXScenario.node[22].nic.mac1609_4 TooLittleTime 0
scalar IRTSystemXScenario.node[22].nic.mac1609_4 TimesIntoBackoff 113
scalar IRTSystemXScenario.node[22].nic.mac1609_4 SlotsBackoff 167
scalar IRTSystemXScenario.node[22].nic.mac1609_4 NumInternalContention 0
scalar IRTSystemXScenario.node[22].nic.mac1609_4 totalBusyTime 0.053465
scalar IRTSystemXScenario.node[22].nic.mac1609_4 retriesExceeded:count 0
attr source org_car2x_veins_modules_mac_sigRetriesExceeded
scalar IRTSystemXScenario.node[22].nic.mac1609_4 sentAcks:count 0
attr source org_car2x_veins_modules_mac_sigSentAck
scalar IRTSystemXScenario.node[22].nic.mac1609_4 sentPackets:count 113
attr source org_car2x_veins_modules_mac_sigSentPacket
scalar IRTSystemXScenario.node[22].nic.mac1609_4 collisions:count 0
attr source org_car2x_veins_modules_mac_sigCollision
scalar IRTSystemXScenario.node[22].nic.mac1609_4 channelBusy:timeavg 0.00047314159292035
attr source org_car2x_veins_modules_mac_sigChannelBusy
scalar IRTSystemXScenario.node[22].veinsmobility startTime 104
scalar IRTSystemXScenario.node[22].veinsmobility totalTime 112
scalar IRTSystemXScenario.node[22].veinsmobility stopTime 217
scalar IRTSystemXScenario.node[22].veinsmobility minSpeed 3.7727413968247
scalar IRTSystemXScenario.node[22].veinsmobility maxSpeed 19.622146088803
scalar IRTSystemXScenario.node[22].veinsmobility totalDistance 1222.6888577631
scalar IRTSystemXScenario.node[22].veinsmobility totalCO2Emission 271.29419744009
scalar IRTSystemXScenario.node[33].appl generatedWSMs 0
scalar IRTSystemXScenario.node[33].appl receivedWSMs 0
scalar IRTSystemXScenario.node[33].appl generatedBSMs 49
scalar IRTSystemXScenario.node[33].appl receivedBSMs 186
scalar IRTSystemXScenario.node[33].appl generatedWSAs 0
scalar IRTSystemXScenario.node[33].appl receivedWSAs 0
scalar IRTSystemXScenario.node[33].nic.phy80211p busyTime 0.00039477551020408
scalar IRTSystemXScenario.node[33].nic.mac1609_4 ReceivedUnicastPackets 0
scalar IRTSystemXScenario.node[33].nic.mac1609_4 ReceivedBroadcasts 186
scalar IRTSystemXScenario.node[33].nic.mac1609_4 SentPackets 49
scalar IRTSystemXScenario.node[33].nic.mac1609_4 SentAcknowledgements 0
scalar IRTSystemXScenario.node[33].nic.mac1609_4 RetriesExceeded 0
scalar IRTSystemXScenario.node[33].nic.mac1609_4 SNIRLostPackets 0
scalar IRTSystemXScenario.node[33].nic.mac1609_4 RXTXLostPackets 0
scalar IRTSystemXScenario.node[33].nic.mac1609_4 TotalLostPackets 0
scalar IRTSystemXScenario.node[33].nic.mac1609_4 DroppedPacketsInMac 0
scalar IRTSystemXScenario.node[33].nic.mac1609_4 TooLittleTime 0
scalar IRTSystemXScenario.node[33].nic.mac1609_4 TimesIntoBackoff 49
scalar IRTSystemXScenario.node[33].nic.mac1609_4 SlotsBackoff 80
scalar IRTSystemXScenario.node[33].nic.mac1609_4 NumInternalContention 0
scalar IRTSystemXScenario.node[33].nic.mac1609_4 totalBusyTime 0.024489
scalar IRTSystemXScenario.node[33].nic.mac1609_4 retriesExceeded:count 0
attr source org_car2x_veins_modules_mac_sigRetriesExceeded
scalar IRTSystemXScenario.node[33].nic.mac1609_4 sentAcks:count 0
attr source org_car2x_veins_modules_mac_sigSentAck
scalar IRTSystemXScenario.node[33].nic.mac1609_4 sentPackets:count 49
attr source org_car2x_veins_modules_mac_sigSentPacket
scalar IRTSystemXScenario.node[33].nic.mac1609_4 collisions:count 0
attr source org_car2x_veins_modules_mac_sigCollision
scalar IRTSystemXScenario.node[33].nic.mac1609_4 channelBusy:timeavg 0.00049977551020408
attr source org_car2x_veins_modules_mac_sigChannelBusy
scalar IRTSystemXScenario.node[33].veinsmobility startTime 179
scalar IRTSystemXScenario.node[33].veinsmobility totalTime 48
scalar IRTSystemXScenario.node[33].veinsmobility stopTime 228
scalar IRTSystemXScenario.node[33].veinsmobility minSpeed 3.9565102757593
scalar IRTSystemXScenario.node[33].veinsmobility maxSpeed 18.358779525791
scalar IRTSystemXScenario.node[33].veinsmobility totalDistance 558.09504130883
scalar IRTSystemXScenario.node[33].veinsmobility totalCO2Emission 141.98209511527
scalar IRTSystemXScenario.node[20].appl generatedWSMs 0
scalar IRTSystemXScenario.node[20].appl receivedWSMs 0
scalar IRTSystemXScenario.node[20].appl generatedBSMs 141
scalar IRTSystemXScenario.node[20].appl receivedBSMs 587
scalar IRTSystemXScenario.node[20].appl generatedWSAs 0
scalar IRTSystemXScenario.node[20].appl receivedWSAs 0
scalar IRTSystemXScenario.node[20].nic.phy80211p busyTime 0.00043296453900709
scalar IRTSystemXScenario.node[20].nic.mac1609_4 ReceivedUnicastPackets 0
scalar IRTSystemXScenario.node[20].nic.mac1609_4 ReceivedBroadcasts 587
scalar IRTSystemXScenario.node[20].nic.mac1609_4 SentPackets 141
scalar IRTSystemXScenario.node[20].nic.mac1609_4 SentAcknowledgements 0
scalar IRTSystemXScenario.node[20].nic.mac1609_4 RetriesExceeded 0
scalar IRTSystemXScenario.node[20].nic.mac1609_4 SNIRLostPackets 0
scalar IRTSystemXScenario.node[20].nic.mac1609_4 RXTXLostPackets 0
scalar IRTSystemXScenario.node[20].nic.mac1609_4 TotalLostPackets 0
scalar IRTSystemXScenario.node[20].nic.mac1609_4 DroppedPacketsInMac 0
scalar IRTSystemXScenario.node[20].nic.mac1609_4 TooLittleTime 0
scalar IRTSystemXScenario.node[20].nic.mac1609_4 TimesIntoBackoff 141
scalar IRTSystemXScenario.node[20].nic.mac1609_4 SlotsBackoff 239
scalar IRTSystemXScenario.node[20].nic.mac1609_4 NumInternalContention 0
scalar IRTSystemXScenario.node[20].nic.mac1609_4 totalBusyTime 0.075853
scalar IRTSystemXScenario.node[20].nic.mac1609_4 retriesExceeded:count 0
attr source org_car2x_veins_modules_mac_sigRetriesExceeded
scalar IRTSystemXScenario.node[20].nic.mac1609_4 sentAcks:count 0
attr source org_car2x_veins_modules_mac_sigSentAck
scalar IRTSystemXScenario.node[20].nic.mac1609_4 sentPackets:count 141
attr source org_car2x_veins_modules_mac_sigSentPacket
scalar IRTSystemXScenario.node[20].nic.mac1609_4 collisions:count 0
attr source org_car2x_veins_modules_mac_sigCollision
scalar IRTSystemXScenario.node[20].nic.mac1609_4 channelBusy:timeavg 0.00053796453900709
attr source org_car2x_veins_modules_mac_sigChannelBusy
scalar IRTSystemXScenario.node[20].veinsmobility startTime 93
scalar IRTSystemXScenario.node[20].veinsmobility totalTime 140
scalar IRTSystemXScenario.node[20].veinsmobility stopTime 234
scalar IRTSystemXScenario.node[20].veinsmobility minSpeed 0
scalar IRTSystemXScenario.node[20].veinsmobility maxSpeed 22.703362106884
scalar IRTSystemXScenario.node[20].veinsmobility totalDistance 1566.9885697702
scalar IRTSystemXScenario.node[20].veinsmobility totalCO2Emission 358.54251362786
scalar IRTSystemXScenario.node[37].appl generatedWSMs 0
scalar IRTSystemXScenario.node[37].appl receivedWSMs 0
scalar IRTSystemXScenario.node[37].appl generatedBSMs 29
scalar IRTSystemXScenario.node[37].appl receivedBSMs 97
scalar IRTSystemXScenario.node[37].appl generatedWSAs 0
scalar IRTSystemXScenario.node[37].appl receivedWSAs 0
scalar IRTSystemXScenario.node[37].nic.phy80211p busyTime 0.00034786206896552
scalar IRTSystemXScenario.node[37].nic.mac1609_4 ReceivedUnicastPackets 0
scalar IRTSystemXScenario.node[37].nic.mac1609_4 ReceivedBroadcasts 97
scalar IRTSystemXScenario.node[37].nic.mac1609_4 SentPackets 29
scalar IRTSystemXScenario.node[37].nic.mac1609_4 SentAcknowledgements 0
scalar IRTSystemXScenario.node[37].nic.mac1609_4 RetriesExceeded 0
scalar IRTSystemXScenario.node[37].nic.mac1609_4 SNIRLostPackets 0
scalar IRTSystemXScenario.node[37].nic.mac1609_4 RXTXLostPackets 0
scalar IRTSystemXScenario.node[37].nic.mac1609_4 TotalLostPackets 0
scalar IRTSystemXScenario.node[37].nic.mac1609_4 DroppedPacketsInMac 0
scalar IRTSystemXScenario.node[37].nic.mac1609_4 TooLittleTime 0
scalar IRTSystemXScenario.node[37].nic.mac1609_4 TimesIntoBackoff 29
scalar IRTSystemXScenario.node[37].nic.mac1609_4 SlotsBackoff 29
scalar IRTSystemXScenario.node[37].nic.mac1609_4 NumInternalContention 0
scalar IRTSystemXScenario.node[37].nic.mac1609_4 totalBusyTime 0.013133
scalar IRTSystemXScenario.node[37].nic.mac1609_4 retriesExceeded:count 0
attr source org_car2x_veins_modules_mac_sigRetriesExceeded
scalar IRTSystemXScenario.node[37].nic.mac1609_4 sentAcks:count 0
attr source org_car2x_veins_modules_mac_sigSentAck
scalar IRTSystemXScenario.node[37].nic.mac1609_4 sentPackets:count 29
attr source org_car2x_veins_modules_mac_sigSentPacket
scalar IRTSystemXScenario.node[37].nic.mac1609_4 collisions:count 0
attr source org_car2x_veins_modules_mac_sigCollision
scalar IRTSystemXScenario.node[37].nic.mac1609_4 channelBusy:timeavg 0.00045286206896552
attr source org_car2x_veins_modules_mac_sigChannelBusy
scalar IRTSystemXScenario.node[37].veinsmobility startTime 206
scalar IRTSystemXScenario.node[37].veinsmobility totalTime 28
scalar IRTSystemXScenario.node[37].veinsmobility stopTime 235
scalar IRTSystemXScenario.node[37].veinsmobility minSpeed 4.208163899287
scalar IRTSystemXScenario.node[37].veinsmobility maxSpeed 12.200529140913
scalar IRTSystemXScenario.node[37].veinsmobility totalDistance 205.80792207074
scalar IRTSystemXScenario.node[37].veinsmobility totalCO2Emission 59.263306372869
scalar IRTSystemXScenario.node[26].appl generatedWSMs 0
scalar IRTSystemXScenario.node[26].appl receivedWSMs 0
scalar IRTSystemXScenario.node[26].appl generatedBSMs 111
scalar IRTSystemXScenario.node[26].appl receivedBSMs 811
scalar IRTSystemXScenario.node[26].appl generatedWSAs 0
scalar IRTSystemXScenario.node[26].appl receivedWSAs 0
scalar IRTSystemXScenario.node[26].nic.phy80211p busyTime 0.00075985585585587
scalar IRTSystemXScenario.node[26].nic.mac1609_4 ReceivedUnicastPackets 0
scalar IRTSystemXScenario.node[26].nic.mac1609_4 ReceivedBroadcasts 811
scalar IRTSystemXScenario.node[26].nic.mac1609_4 SentPackets 111
scalar IRTSystemXScenario.node[26].nic.mac1609_4 SentAcknowledgements 0
scalar IRTSystemXScenario.node[26].nic.mac1609_4 RetriesExceeded 0
scalar IRTSystemXScenario.node[26].nic.mac1609_4 SNIRLostPackets 0
scalar IRTSystemXScenario.node[26].nic.mac1609_4 RXTXLostPackets 0
scalar IRTSystemXScenario.node[26].nic.mac1609_4 TotalLostPackets 0
scalar IRTSystemXScenario.node[26].nic.mac1609_4 DroppedPacketsInMac 0
scalar IRTSystemXScenario.node[26].nic.mac1609_4 TooLittleTime 0
scalar IRTSystemXScenario.node[26].nic.mac1609_4 TimesIntoBackoff 111
scalar IRTSystemXScenario.node[26].nic.mac1609_4 SlotsBackoff 170
scalar IRTSystemXScenario.node[26].nic.mac1609_4 NumInternalContention 0
scalar IRTSystemXScenario.node[26].nic.mac1609_4 totalBusyTime 0.095999
scalar IRTSystemXScenario.node[26].nic.mac1609_4 retriesExceeded:count 0
attr source org_car2x_veins_modules_mac_sigRetriesExceeded
scalar IRTSystemXScenario.node[26].nic.mac1609_4 sentAcks:count 0
attr source org_car2x_veins_modules_mac_sigSentAck
scalar IRTSystemXScenario.node[26].nic.mac1609_4 sentPackets:count 111
attr source org_car2x_veins_modules_mac_sigSentPacket
scalar IRTSystemXScenario.node[26].nic.mac1609_4 collisions:count 0
attr source org_car2x_veins_modules_mac_sigCollision
scalar IRTSystemXScenario.node[26].nic.mac1609_4 channelBusy:timeavg 0.00086485585585587
attr source org_car2x_veins_modules_mac_sigChannelBusy
scalar IRTSystemXScenario.node[26].veinsmobility startTime 134
scalar IRTSystemXScenario.node[26].veinsmobility totalTime 110
scalar IRTSystemXScenario.node[26].veinsmobility stopTime 245
scalar IRTSystemXScenario.node[26].veinsmobility minSpeed 0
scalar IRTSystemXScenario.node[26].veinsmobility maxSpeed 13.203861101569
scalar IRTSystemXScenario.node[26].veinsmobility totalDistance 692.85428479253
scalar IRTSystemXScenario.node[26].veinsmobility totalCO2Emission 186.51436226689
scalar IRTSystemXScenario.node[34].appl generatedWSMs 0
scalar IRTSystemXScenario.node[34].appl receivedWSMs 0
scalar IRTSystemXScenario.node[34].appl generatedBSMs 63
scalar IRTSystemXScenario.node[34].appl receivedBSMs 242
scalar IRTSystemXScenario.node[34].appl generatedWSAs 0
scalar IRTSystemXScenario.node[34].appl receivedWSAs 0
scalar IRTSystemXScenario.node[34].nic.phy80211p busyTime 0.00039949206349206
scalar IRTSystemXScenario.node[34].nic.mac1609_4 ReceivedUnicastPackets 0
scalar IRTSystemXScenario.node[34].nic.mac1609_4 ReceivedBroadcasts 242
scalar IRTSystemXScenario.node[34].nic.mac1609_4 SentPackets 63
scalar IRTSystemXScenario.node[34].nic.mac1609_4 SentAcknowledgements 0
scalar IRTSystemXScenario.node[34].nic.mac1609_4 RetriesExceeded 0
scalar IRTSystemXScenario.node[34].nic.mac1609_4 SNIRLostPackets 0
scalar IRTSystemXScenario.node[34].nic.mac1609_4 RXTXLostPackets 0
scalar IRTSystemXScenario.node[34].nic.mac1609_4 TotalLostPackets 0
scalar IRTSystemXScenario.node[34].nic.mac1609_4 DroppedPacketsInMac 0
scalar IRTSystemXScenario.node[34].nic.mac1609_4 TooLittleTime 0
scalar IRTSystemXScenario.node[34].nic.mac1609_4 TimesIntoBackoff 63
scalar IRTSystemXScenario.node[34].nic.mac1609_4 SlotsBackoff 92
scalar IRTSystemXScenario.node[34].nic.mac1609_4 NumInternalContention 0
scalar IRTSystemXScenario.node[34].nic.mac1609_4 totalBusyTime 0.031783
scalar IRTSystemXScenario.node[34].nic.mac1609_4 retriesExceeded:count 0
attr source org_car2x_veins_modules_mac_sigRetriesExceeded
scalar IRTSystemXScenario.node[34].nic.mac1609_4 sentAcks:count 0
attr source org_car2x_veins_modules_mac_sigSentAck
scalar IRTSystemXScenario.node[34].nic.mac1609_4 sentPackets:count 63
attr source org_car2x_veins_modules_mac_sigSentPacket
scalar IRTSystemXScenario.node[34].nic.mac1609_4 collisions:count 0
attr source org_car2x_veins_modules_mac_sigCollision
scalar IRTSystemXScenario.node[34].nic.mac1609_4 channelBusy:timeavg 0.00050449206349206
attr source org_car2x_veins_modules_mac_sigChannelBusy
scalar IRTSystemXScenario.node[34].veinsmobility startTime 185
scalar IRTSystemXScenario.node[34].veinsmobility totalTime 62
scalar IRTSystemXScenario.node[34].veinsmobility stopTime 248
scalar IRTSystemXScenario.node[34].veinsmobility minSpeed 4.156991886019
scalar IRTSystemXScenario.node[34].veinsmobility maxSpeed 22.543976428044
scalar IRTSystemXScenario.node[34].veinsmobility totalDistance 633.73082956738
scalar IRTSystemXScenario.node[34].veinsmobility totalCO2Emission 174.05825924967
scalar IRTSystemXScenario.node[16].appl generatedWSMs 0
scalar IRTSystemXScenario.node[16].appl receivedWSMs 0
scalar IRTSystemXScenario.node[16].appl generatedBSMs 172
scalar IRTSystemXScenario.node[16].appl receivedBSMs 914
scalar IRTSystemXScenario.node[16].appl generatedWSAs 0
scalar IRTSystemXScenario.node[16].appl receivedWSAs 0
scalar IRTSystemXScenario.node[16].nic.phy80211p busyTime 0.00055265116279071
scalar IRTSystemXScenario.node[16].nic.mac1609_4 ReceivedUnicastPackets 0
scalar IRTSystemXScenario.node[16].nic.mac1609_4 ReceivedBroadcasts 914
scalar IRTSystemXScenario.node[16].nic.mac1609_4 SentPackets 172
scalar IRTSystemXScenario.node[16].nic.mac1609_4 SentAcknowledgements 0
scalar IRTSystemXScenario.node[16].nic.mac1609_4 RetriesExceeded 0
scalar IRTSystemXScenario.node[16].nic.mac1609_4 SNIRLostPackets 0
scalar IRTSystemXScenario.node[16].nic.mac1609_4 RXTXLostPackets 0
scalar IRTSystemXScenario.node[16].nic.mac1609_4 TotalLostPackets 0
scalar IRTSystemXScenario.node[16].nic.mac1609_4 DroppedPacketsInMac 0
scalar IRTSystemXScenario.node[16].nic.mac1609_4 TooLittleTime 0
scalar IRTSystemXScenario.node[16].nic.mac1609_4 TimesIntoBackoff 172
scalar IRTSystemXScenario.node[16].nic.mac1609_4 SlotsBackoff 251
scalar IRTSystemXScenario.node[16].nic.mac1609_4 NumInternalContention 0
scalar IRTSystemXScenario.node[16].nic.mac1609_4 totalBusyTime 0.113116
scalar IRTSystemXScenario.node[16].nic.mac1609_4 retriesExceeded:count 0
attr source org_car2x_veins_modules_mac_sigRetriesExceeded
scalar IRTSystemXScenario.node[16].nic.mac1609_4 sentAcks:count 0
attr source org_car2x_veins_modules_mac_sigSentAck
scalar IRTSystemXScenario.node[16].nic.mac1609_4 sentPackets:count 172
attr source org_car2x_veins_modules_mac_sigSentPacket
scalar IRTSystemXScenario.node[16].nic.mac1609_4 collisions:count 0
attr source org_car2x_veins_modules_mac_sigCollision
scalar IRTSystemXScenario.node[16].nic.mac1609_4 channelBusy:timeavg 0.00065765116279071
attr source org_car2x_veins_modules_mac_sigChannelBusy
scalar IRTSystemXScenario.node[16].veinsmobility startTime 77
scalar IRTSystemXScenario.node[16].veinsmobility totalTime 171
scalar IRTSystemXScenario.node[16].veinsmobility stopTime 249
scalar IRTSystemXScenario.node[16].veinsmobility minSpeed 0
scalar IRTSystemXScenario.node[16].veinsmobility maxSpeed 22.843465385147
scalar IRTSystemXScenario.node[16].veinsmobility totalDistance 1419.1446833941
scalar IRTSystemXScenario.node[16].veinsmobility totalCO2Emission 458.06004361159
scalar IRTSystemXScenario.node[36].appl generatedWSMs 0
scalar IRTSystemXScenario.node[36].appl receivedWSMs 0
scalar IRTSystemXScenario.node[36].appl generatedBSMs 66
scalar IRTSystemXScenario.node[36].appl receivedBSMs 190
scalar IRTSystemXScenario.node[36].appl generatedWSAs 0
scalar IRTSystemXScenario.node[36].appl receivedWSAs 0
scalar IRTSystemXScenario.node[36].nic.phy80211p busyTime 0.00029939393939394
scalar IRTSystemXScenario.node[36].nic.mac1609_4 ReceivedUnicastPackets 0
scalar IRTSystemXScenario.node[36].nic.mac1609_4 ReceivedBroadcasts 190
scalar IRTSystemXScenario.node[36].nic.mac1609_4 SentPackets 66
scalar IRTSystemXScenario.node[36].nic.mac1609_4 SentAcknowledgements 0
scalar IRTSystemXScenario.node[36].nic.mac1609_4 RetriesExceeded 0
scalar IRTSystemXScenario.node[36].nic.mac1609_4 SNIRLostPackets 0
scalar IRTSystemXScenario.node[36].nic.mac1609_4 RXTXLostPackets 0
scalar IRTSystemXScenario.node[36].nic.mac1609_4 TotalLostPackets 0
scalar IRTSystemXScenario.node[36].nic.mac1609_4 DroppedPacketsInMac 0
scalar IRTSystemXScenario.node[36].nic.mac1609_4 TooLittleTime 0
scalar IRTSystemXScenario.node[36].nic.mac1609_4 TimesIntoBackoff 66
scalar IRTSystemXScenario.node[36].nic.mac1609_4 SlotsBackoff 85
scalar IRTSystemXScenario.node[36].nic.mac1609_4 NumInternalContention 0
scalar IRTSystemXScenario.node[36].nic.mac1609_4 totalBusyTime 0.02669
scalar IRTSystemXScenario.node[36].nic.mac1609_4 retriesExceeded:count 0
attr source org_car2x_veins_modules_mac_sigRetriesExceeded
scalar IRTSystemXScenario.node[36].nic.mac1609_4 sentAcks:count 0
attr source org_car2x_veins_modules_mac_sigSentAck
scalar IRTSystemXScenario.node[36].nic.mac1609_4 sentPackets:count 66
attr source org_car2x_veins_modules_mac_sigSentPacket
scalar IRTSystemXScenario.node[36].nic.mac1609_4 collisions:count 0
attr source org_car2x_veins_modules_mac_sigCollision
scalar IRTSystemXScenario.node[36].nic.mac1609_4 channelBusy:timeavg 0.00040439393939394
attr source org_car2x_veins_modules_mac_sigChannelBusy
scalar IRTSystemXScenario.node[36].veinsmobility startTime 197
scalar IRTSystemXScenario.node[36].veinsmobility totalTime 65
scalar IRTSystemXScenario.node[36].veinsmobility stopTime 263
scalar IRTSystemXScenario.node[36].veinsmobility minSpeed 3.9746803454134
scalar IRTSystemXScenario.node[36].veinsmobility maxSpeed 14.536015924716
scalar IRTSystemXScenario.node[36].veinsmobility totalDistance 575.83952014595
scalar IRTSystemXScenario.node[36].veinsmobility totalCO2Emission 139.03820961936
scalar IRTSystemXScenario.node[21].appl generatedWSMs 0
scalar IRTSystemXScenario.node[21].appl receivedWSMs 0
scalar IRTSystemXScenario.node[21].appl generatedBSMs 175
scalar IRTSystemXScenario.node[21].appl receivedBSMs 918
scalar IRTSystemXScenario.node[21].appl generatedWSAs 0
scalar IRTSystemXScenario.node[21].appl receivedWSAs 0
scalar IRTSystemXScenario.node[21].nic.phy80211p busyTime 0.0005455542857143
scalar IRTSystemXScenario.node[21].nic.mac1609_4 ReceivedUnicastPackets 0
scalar IRTSystemXScenario.node[21].nic.mac1609_4 ReceivedBroadcasts 918
scalar IRTSystemXScenario.node[21].nic.mac1609_4 SentPackets 175
scalar IRTSystemXScenario.node[21].nic.mac1609_4 SentAcknowledgements 0
scalar IRTSystemXScenario.node[21].nic.mac1609_4 RetriesExceeded 0
scalar IRTSystemXScenario.node[21].nic.mac1609_4 SNIRLostPackets 0
scalar IRTSystemXScenario.node[21].nic.mac1609_4 RXTXLostPackets 0
scalar IRTSystemXScenario.node[21].nic.mac1609_4 TotalLostPackets 0
scalar IRTSystemXScenario.node[21].nic.mac1609_4 DroppedPacketsInMac 0
scalar IRTSystemXScenario.node[21].nic.mac1609_4 TooLittleTime 0
scalar IRTSystemXScenario.node[21].nic.mac1609_4 TimesIntoBackoff 175
scalar IRTSystemXScenario.node[21].nic.mac1609_4 SlotsBackoff 266
scalar IRTSystemXScenario.node[21].nic.mac1609_4 NumInternalContention 0
scalar IRTSystemXScenario.node[21].nic.mac1609_4 totalBusyTime 0.113847
scalar IRTSystemXScenario.node[21].nic.mac1609_4 retriesExceeded:count 0
attr source org_car2x_veins_modules_mac_sigRetriesExceeded
scalar IRTSystemXScenario.node[21].nic.mac1609_4 sentAcks:count 0
attr source org_car2x_veins_modules_mac_sigSentAck
scalar IRTSystemXScenario.node[21].nic.mac1609_4 sentPackets:count 175
attr source org_car2x_veins_modules_mac_sigSentPacket
scalar IRTSystemXScenario.node[21].nic.mac1609_4 collisions:count 0
attr source org_car2x_veins_modules_mac_sigCollision
scalar IRTSystemXScenario.node[21].nic.mac1609_4 channelBusy:timeavg 0.0006505542857143
attr source org_car2x_veins_modules_mac_sigChannelBusy
scalar IRTSystemXScenario.node[21].veinsmobility startTime 97
scalar IRTSystemXScenario.node[21].veinsmobility totalTime 174
scalar IRTSystemXScenario.node[21].veinsmobility stopTime 272
scalar IRTSystemXScenario.node[21].veinsmobility minSpeed 4.1258911495523
scalar IRTSystemXScenario.node[21].veinsmobility maxSpeed 12.204001291724
scalar IRTSystemXScenario.node[21].veinsmobility totalDistance 1763.1606191014
scalar IRTSystemXScenario.node[21].veinsmobility totalCO2Emission 351.41820331714
scalar IRTSystemXScenario.node[35].appl generatedWSMs 0
scalar IRTSystemXScenario.node[35].appl receivedWSMs 0
scalar IRTSystemXScenario.node[35].appl generatedBSMs 88
scalar IRTSystemXScenario.node[35].appl receivedBSMs 209
scalar IRTSystemXScenario.node[35].appl generatedWSAs 0
scalar IRTSystemXScenario.node[35].appl receivedWSAs 0
scalar IRTSystemXScenario.node[35].nic.phy80211p busyTime 0.000247
scalar IRTSystemXScenario.node[35].nic.mac1609_4 ReceivedUnicastPackets 0
scalar IRTSystemXScenario.node[35].nic.mac1609_4 ReceivedBroadcasts 209
scalar IRTSystemXScenario.node[35].nic.mac1609_4 SentPackets 88
scalar IRTSystemXScenario.node[35].nic.mac1609_4 SentAcknowledgements 0
scalar IRTSystemXScenario.node[35].nic.mac1609_4 RetriesExceeded 0
scalar IRTSystemXScenario.node[35].nic.mac1609_4 SNIRLostPackets 0
scalar IRTSystemXScenario.node[35].nic.mac1609_4 RXTXLostPackets 0
scalar IRTSystemXScenario.node[35].nic.mac1609_4 TotalLostPackets 0
scalar IRTSystemXScenario.node[35].nic.mac1609_4 DroppedPacketsInMac 0
scalar IRTSystemXScenario.node[35].nic.mac1609_4 TooLittleTime 0
scalar IRTSystemXScenario.node[35].nic.mac1609_4 TimesIntoBackoff 88
scalar IRTSystemXScenario.node[35].nic.mac1609_4 SlotsBackoff 128
scalar IRTSystemXScenario.node[35].nic.mac1609_4 NumInternalContention 0
scalar IRTSystemXScenario.node[35].nic.mac1609_4 totalBusyTime 0.030976
scalar IRTSystemXScenario.node[35].nic.mac1609_4 retriesExceeded:count 0
attr source org_car2x_veins_modules_mac_sigRetriesExceeded
scalar IRTSystemXScenario.node[35].nic.mac1609_4 sentAcks:count 0
attr source org_car2x_veins_modules_mac_sigSentAck
scalar IRTSystemXScenario.node[35].nic.mac1609_4 sentPackets:count 88
attr source org_car2x_veins_modules_mac_sigSentPacket
scalar IRTSystemXScenario.node[35].nic.mac1609_4 collisions:count 0
attr source org_car2x_veins_modules_mac_sigCollision
scalar IRTSystemXScenario.node[35].nic.mac1609_4 channelBusy:timeavg 0.000352
attr source org_car2x_veins_modules_mac_sigChannelBusy
scalar IRTSystemXScenario.node[35].veinsmobility startTime 191
scalar IRTSystemXScenario.node[35].veinsmobility totalTime 87
scalar IRTSystemXScenario.node[35].veinsmobility stopTime 279
scalar IRTSystemXScenario.node[35].veinsmobility minSpeed 1.127133290121
scalar IRTSystemXScenario.node[35].veinsmobility maxSpeed 23.227622869992
scalar IRTSystemXScenario.node[35].veinsmobility totalDistance 1113.0036176981
scalar IRTSystemXScenario.node[35].veinsmobility totalCO2Emission 293.65487550366
scalar IRTSystemXScenario.node[39].appl generatedWSMs 0
scalar IRTSystemXScenario.node[39].appl receivedWSMs 0
scalar IRTSystemXScenario.node[39].appl generatedBSMs 64
scalar IRTSystemXScenario.node[39].appl receivedBSMs 86
scalar IRTSystemXScenario.node[39].appl generatedWSAs 0
scalar IRTSystemXScenario.node[39].appl receivedWSAs 0
scalar IRTSystemXScenario.node[39].nic.phy80211p busyTime 0.00013975
scalar IRTSystemXScenario.node[39].nic.mac1609_4 ReceivedUnicastPackets 0
scalar IRTSystemXScenario.node[39].nic.mac1609_4 ReceivedBroadcasts 86
scalar IRTSystemXScenario.node[39].nic.mac1609_4 SentPackets 64
scalar IRTSystemXScenario.node[39].nic.mac1609_4 SentAcknowledgements 0
scalar IRTSystemXScenario.node[39].nic.mac1609_4 RetriesExceeded 0
scalar IRTSystemXScenario.node[39].nic.mac1609_4 SNIRLostPackets 0
scalar IRTSystemXScenario.node[39].nic.mac1609_4 RXTXLostPackets 0
scalar IRTSystemXScenario.node[39].nic.mac1609_4 TotalLostPackets 0
scalar IRTSystemXScenario.node[39].nic.mac1609_4 DroppedPacketsInMac 0
scalar IRTSystemXScenario.node[39].nic.mac1609_4 TooLittleTime 0
scalar IRTSystemXScenario.node[39].nic.mac1609_4 TimesIntoBackoff 64
scalar IRTSystemXScenario.node[39].nic.mac1609_4 SlotsBackoff 110
scalar IRTSystemXScenario.node[39].nic.mac1609_4 NumInternalContention 0
scalar IRTSystemXScenario.node[39].nic.mac1609_4 totalBusyTime 0.015664
scalar IRTSystemXScenario.node[39].nic.mac1609_4 retriesExceeded:count 0
attr source org_car2x_veins_modules_mac_sigRetriesExceeded
scalar IRTSystemXScenario.node[39].nic.mac1609_4 sentAcks:count 0
attr source org_car2x_veins_modules_mac_sigSentAck
scalar IRTSystemXScenario.node[39].nic.mac1609_4 sentPackets:count 64
attr source org_car2x_veins_modules_mac_sigSentPacket
scalar IRTSystemXScenario.node[39].nic.mac1609_4 collisions:count 0
attr source org_car2x_veins_modules_mac_sigCollision
scalar IRTSystemXScenario.node[39].nic.mac1609_4 channelBusy:timeavg 0.00024475
attr source org_car2x_veins_modules_mac_sigChannelBusy
scalar IRTSystemXScenario.node[39].veinsmobility startTime 221
scalar IRTSystemXScenario.node[39].veinsmobility totalTime 63
scalar IRTSystemXScenario.node[39].veinsmobility stopTime 285
scalar IRTSystemXScenario.node[39].veinsmobility minSpeed 4.020714057077
scalar IRTSystemXScenario.node[39].veinsmobility maxSpeed 12.437939331768
scalar IRTSystemXScenario.node[39].veinsmobility totalDistance 723.20241452748
scalar IRTSystemXScenario.node[39].veinsmobility totalCO2Emission 157.27352716147
scalar IRTSystemXScenario.node[19].appl generatedWSMs 0
scalar IRTSystemXScenario.node[19].appl receivedWSMs 0
scalar IRTSystemXScenario.node[19].appl generatedBSMs 198
scalar IRTSystemXScenario.node[19].appl receivedBSMs 742
scalar IRTSystemXScenario.node[19].appl generatedWSAs 0
scalar IRTSystemXScenario.node[19].appl receivedWSAs 0
scalar IRTSystemXScenario.node[19].nic.phy80211p busyTime 0.00038973737373738
scalar IRTSystemXScenario.node[19].nic.mac1609_4 ReceivedUnicastPackets 0
scalar IRTSystemXScenario.node[19].nic.mac1609_4 ReceivedBroadcasts 742
scalar IRTSystemXScenario.node[19].nic.mac1609_4 SentPackets 198
scalar IRTSystemXScenario.node[19].nic.mac1609_4 SentAcknowledgements 0
scalar IRTSystemXScenario.node[19].nic.mac1609_4 RetriesExceeded 0
scalar IRTSystemXScenario.node[19].nic.mac1609_4 SNIRLostPackets 0
scalar IRTSystemXScenario.node[19].nic.mac1609_4 RXTXLostPackets 0
scalar IRTSystemXScenario.node[19].nic.mac1609_4 TotalLostPackets 0
scalar IRTSystemXScenario.node[19].nic.mac1609_4 DroppedPacketsInMac 0
scalar IRTSystemXScenario.node[19].nic.mac1609_4 TooLittleTime 0
[...]
scalar IRTSystemXScenario.node[520].nic.phy80211p busyTime 0.00077321739130435
scalar IRTSystemXScenario.node[520].nic.mac1609_4 ReceivedUnicastPackets 0
scalar IRTSystemXScenario.node[520].nic.mac1609_4 ReceivedBroadcasts 342
scalar IRTSystemXScenario.node[520].nic.mac1609_4 SentPackets 46
scalar IRTSystemXScenario.node[520].nic.mac1609_4 SentAcknowledgements 0
scalar IRTSystemXScenario.node[520].nic.mac1609_4 RetriesExceeded 0
scalar IRTSystemXScenario.node[520].nic.mac1609_4 SNIRLostPackets 0
scalar IRTSystemXScenario.node[520].nic.mac1609_4 RXTXLostPackets 0
scalar IRTSystemXScenario.node[520].nic.mac1609_4 TotalLostPackets 0
scalar IRTSystemXScenario.node[520].nic.mac1609_4 DroppedPacketsInMac 0
scalar IRTSystemXScenario.node[520].nic.mac1609_4 TooLittleTime 0
scalar IRTSystemXScenario.node[520].nic.mac1609_4 TimesIntoBackoff 46
scalar IRTSystemXScenario.node[520].nic.mac1609_4 SlotsBackoff 56
scalar IRTSystemXScenario.node[520].nic.mac1609_4 NumInternalContention 0
scalar IRTSystemXScenario.node[520].nic.mac1609_4 totalBusyTime 0.040398
scalar IRTSystemXScenario.node[520].nic.mac1609_4 retriesExceeded:count 0
attr source org_car2x_veins_modules_mac_sigRetriesExceeded
scalar IRTSystemXScenario.node[520].nic.mac1609_4 sentAcks:count 0
attr source org_car2x_veins_modules_mac_sigSentAck
scalar IRTSystemXScenario.node[520].nic.mac1609_4 sentPackets:count 46
attr source org_car2x_veins_modules_mac_sigSentPacket
scalar IRTSystemXScenario.node[520].nic.mac1609_4 collisions:count 0
attr source org_car2x_veins_modules_mac_sigCollision
scalar IRTSystemXScenario.node[520].nic.mac1609_4 channelBusy:timeavg 0.00087821739130435
attr source org_car2x_veins_modules_mac_sigChannelBusy
scalar IRTSystemXScenario.node[520].veinsmobility startTime 3554
scalar IRTSystemXScenario.node[520].veinsmobility totalTime 46
scalar IRTSystemXScenario.node[520].veinsmobility stopTime 3600
scalar IRTSystemXScenario.node[520].veinsmobility minSpeed 3.5416904117681e-05
scalar IRTSystemXScenario.node[520].veinsmobility maxSpeed 7.9185615877364
scalar IRTSystemXScenario.node[520].veinsmobility totalDistance 260.15584895735
scalar IRTSystemXScenario.node[520].veinsmobility totalCO2Emission 68.788475136089
scalar IRTSystemXScenario.node[521].appl generatedWSMs 0
scalar IRTSystemXScenario.node[521].appl receivedWSMs 0
scalar IRTSystemXScenario.node[521].appl generatedBSMs 37
scalar IRTSystemXScenario.node[521].appl receivedBSMs 28
scalar IRTSystemXScenario.node[521].appl generatedWSAs 0
scalar IRTSystemXScenario.node[521].appl receivedWSAs 0
scalar IRTSystemXScenario.node[521].nic.phy80211p busyTime 7.8702702702703e-05
scalar IRTSystemXScenario.node[521].nic.mac1609_4 ReceivedUnicastPackets 0
scalar IRTSystemXScenario.node[521].nic.mac1609_4 ReceivedBroadcasts 28
scalar IRTSystemXScenario.node[521].nic.mac1609_4 SentPackets 37
scalar IRTSystemXScenario.node[521].nic.mac1609_4 SentAcknowledgements 0
scalar IRTSystemXScenario.node[521].nic.mac1609_4 RetriesExceeded 0
scalar IRTSystemXScenario.node[521].nic.mac1609_4 SNIRLostPackets 0
scalar IRTSystemXScenario.node[521].nic.mac1609_4 RXTXLostPackets 0
scalar IRTSystemXScenario.node[521].nic.mac1609_4 TotalLostPackets 0
scalar IRTSystemXScenario.node[521].nic.mac1609_4 DroppedPacketsInMac 0
scalar IRTSystemXScenario.node[521].nic.mac1609_4 TooLittleTime 0
scalar IRTSystemXScenario.node[521].nic.mac1609_4 TimesIntoBackoff 37
scalar IRTSystemXScenario.node[521].nic.mac1609_4 SlotsBackoff 50
scalar IRTSystemXScenario.node[521].nic.mac1609_4 NumInternalContention 0
scalar IRTSystemXScenario.node[521].nic.mac1609_4 totalBusyTime 0.006797
scalar IRTSystemXScenario.node[521].nic.mac1609_4 retriesExceeded:count 0
attr source org_car2x_veins_modules_mac_sigRetriesExceeded
scalar IRTSystemXScenario.node[521].nic.mac1609_4 sentAcks:count 0
attr source org_car2x_veins_modules_mac_sigSentAck
scalar IRTSystemXScenario.node[521].nic.mac1609_4 sentPackets:count 37
attr source org_car2x_veins_modules_mac_sigSentPacket
scalar IRTSystemXScenario.node[521].nic.mac1609_4 collisions:count 0
attr source org_car2x_veins_modules_mac_sigCollision
scalar IRTSystemXScenario.node[521].nic.mac1609_4 channelBusy:timeavg 0.0001837027027027
attr source org_car2x_veins_modules_mac_sigChannelBusy
scalar IRTSystemXScenario.node[521].veinsmobility startTime 3563
scalar IRTSystemXScenario.node[521].veinsmobility totalTime 37
scalar IRTSystemXScenario.node[521].veinsmobility stopTime 3600
scalar IRTSystemXScenario.node[521].veinsmobility minSpeed 4.0456511438322
scalar IRTSystemXScenario.node[521].veinsmobility maxSpeed 23.067245873003
scalar IRTSystemXScenario.node[521].veinsmobility totalDistance 742.18947346106
scalar IRTSystemXScenario.node[521].veinsmobility totalCO2Emission 176.13738574654
scalar IRTSystemXScenario.node[522].appl generatedWSMs 0
scalar IRTSystemXScenario.node[522].appl receivedWSMs 0
scalar IRTSystemXScenario.node[522].appl generatedBSMs 31
scalar IRTSystemXScenario.node[522].appl receivedBSMs 189
scalar IRTSystemXScenario.node[522].appl generatedWSAs 0
scalar IRTSystemXScenario.node[522].appl receivedWSAs 0
scalar IRTSystemXScenario.node[522].nic.phy80211p busyTime 0.00063406451612903
scalar IRTSystemXScenario.node[522].nic.mac1609_4 ReceivedUnicastPackets 0
scalar IRTSystemXScenario.node[522].nic.mac1609_4 ReceivedBroadcasts 189
scalar IRTSystemXScenario.node[522].nic.mac1609_4 SentPackets 31
scalar IRTSystemXScenario.node[522].nic.mac1609_4 SentAcknowledgements 0
scalar IRTSystemXScenario.node[522].nic.mac1609_4 RetriesExceeded 0
scalar IRTSystemXScenario.node[522].nic.mac1609_4 SNIRLostPackets 0
scalar IRTSystemXScenario.node[522].nic.mac1609_4 RXTXLostPackets 0
scalar IRTSystemXScenario.node[522].nic.mac1609_4 TotalLostPackets 0
scalar IRTSystemXScenario.node[522].nic.mac1609_4 DroppedPacketsInMac 0
scalar IRTSystemXScenario.node[522].nic.mac1609_4 TooLittleTime 0
scalar IRTSystemXScenario.node[522].nic.mac1609_4 TimesIntoBackoff 31
scalar IRTSystemXScenario.node[522].nic.mac1609_4 SlotsBackoff 43
scalar IRTSystemXScenario.node[522].nic.mac1609_4 NumInternalContention 0
scalar IRTSystemXScenario.node[522].nic.mac1609_4 totalBusyTime 0.022911
scalar IRTSystemXScenario.node[522].nic.mac1609_4 retriesExceeded:count 0
attr source org_car2x_veins_modules_mac_sigRetriesExceeded
scalar IRTSystemXScenario.node[522].nic.mac1609_4 sentAcks:count 0
attr source org_car2x_veins_modules_mac_sigSentAck
scalar IRTSystemXScenario.node[522].nic.mac1609_4 sentPackets:count 31
attr source org_car2x_veins_modules_mac_sigSentPacket
scalar IRTSystemXScenario.node[522].nic.mac1609_4 collisions:count 0
attr source org_car2x_veins_modules_mac_sigCollision
scalar IRTSystemXScenario.node[522].nic.mac1609_4 channelBusy:timeavg 0.00073906451612903
attr source org_car2x_veins_modules_mac_sigChannelBusy
scalar IRTSystemXScenario.node[522].veinsmobility startTime 3569
scalar IRTSystemXScenario.node[522].veinsmobility totalTime 31
scalar IRTSystemXScenario.node[522].veinsmobility stopTime 3600
scalar IRTSystemXScenario.node[522].veinsmobility minSpeed 3.916594189782
scalar IRTSystemXScenario.node[522].veinsmobility maxSpeed 8.7133842552265
scalar IRTSystemXScenario.node[522].veinsmobility totalDistance 257.04815650217
scalar IRTSystemXScenario.node[522].veinsmobility totalCO2Emission 55.443781978464
scalar IRTSystemXScenario.node[523].appl generatedWSMs 0
scalar IRTSystemXScenario.node[523].appl receivedWSMs 0
scalar IRTSystemXScenario.node[523].appl generatedBSMs 25
scalar IRTSystemXScenario.node[523].appl receivedBSMs 171
scalar IRTSystemXScenario.node[523].appl generatedWSAs 0
scalar IRTSystemXScenario.node[523].appl receivedWSAs 0
scalar IRTSystemXScenario.node[523].nic.phy80211p busyTime 0.00071136
scalar IRTSystemXScenario.node[523].nic.mac1609_4 ReceivedUnicastPackets 0
scalar IRTSystemXScenario.node[523].nic.mac1609_4 ReceivedBroadcasts 171
scalar IRTSystemXScenario.node[523].nic.mac1609_4 SentPackets 25
scalar IRTSystemXScenario.node[523].nic.mac1609_4 SentAcknowledgements 0
scalar IRTSystemXScenario.node[523].nic.mac1609_4 RetriesExceeded 0
scalar IRTSystemXScenario.node[523].nic.mac1609_4 SNIRLostPackets 0
scalar IRTSystemXScenario.node[523].nic.mac1609_4 RXTXLostPackets 0
scalar IRTSystemXScenario.node[523].nic.mac1609_4 TotalLostPackets 0
scalar IRTSystemXScenario.node[523].nic.mac1609_4 DroppedPacketsInMac 0
scalar IRTSystemXScenario.node[523].nic.mac1609_4 TooLittleTime 0
scalar IRTSystemXScenario.node[523].nic.mac1609_4 TimesIntoBackoff 25
scalar IRTSystemXScenario.node[523].nic.mac1609_4 SlotsBackoff 37
scalar IRTSystemXScenario.node[523].nic.mac1609_4 NumInternalContention 0
scalar IRTSystemXScenario.node[523].nic.mac1609_4 totalBusyTime 0.020409
scalar IRTSystemXScenario.node[523].nic.mac1609_4 retriesExceeded:count 0
attr source org_car2x_veins_modules_mac_sigRetriesExceeded
scalar IRTSystemXScenario.node[523].nic.mac1609_4 sentAcks:count 0
attr source org_car2x_veins_modules_mac_sigSentAck
scalar IRTSystemXScenario.node[523].nic.mac1609_4 sentPackets:count 25
attr source org_car2x_veins_modules_mac_sigSentPacket
scalar IRTSystemXScenario.node[523].nic.mac1609_4 collisions:count 0
attr source org_car2x_veins_modules_mac_sigCollision
scalar IRTSystemXScenario.node[523].nic.mac1609_4 channelBusy:timeavg 0.00081636
attr source org_car2x_veins_modules_mac_sigChannelBusy
scalar IRTSystemXScenario.node[523].veinsmobility startTime 3575
scalar IRTSystemXScenario.node[523].veinsmobility totalTime 25
scalar IRTSystemXScenario.node[523].veinsmobility stopTime 3600
scalar IRTSystemXScenario.node[523].veinsmobility minSpeed 4.0352651202566
scalar IRTSystemXScenario.node[523].veinsmobility maxSpeed 9.5778121570512
scalar IRTSystemXScenario.node[523].veinsmobility totalDistance 223.92392691303
scalar IRTSystemXScenario.node[523].veinsmobility totalCO2Emission 49.527560947568
scalar IRTSystemXScenario.node[524].appl generatedWSMs 0
scalar IRTSystemXScenario.node[524].appl receivedWSMs 0
scalar IRTSystemXScenario.node[524].appl generatedBSMs 19
scalar IRTSystemXScenario.node[524].appl receivedBSMs 42
scalar IRTSystemXScenario.node[524].appl generatedWSAs 0
scalar IRTSystemXScenario.node[524].appl receivedWSAs 0
scalar IRTSystemXScenario.node[524].nic.phy80211p busyTime 0.00022989473684211
scalar IRTSystemXScenario.node[524].nic.mac1609_4 ReceivedUnicastPackets 0
scalar IRTSystemXScenario.node[524].nic.mac1609_4 ReceivedBroadcasts 42
scalar IRTSystemXScenario.node[524].nic.mac1609_4 SentPackets 19
scalar IRTSystemXScenario.node[524].nic.mac1609_4 SentAcknowledgements 0
scalar IRTSystemXScenario.node[524].nic.mac1609_4 RetriesExceeded 0
scalar IRTSystemXScenario.node[524].nic.mac1609_4 SNIRLostPackets 0
scalar IRTSystemXScenario.node[524].nic.mac1609_4 RXTXLostPackets 0
scalar IRTSystemXScenario.node[524].nic.mac1609_4 TotalLostPackets 0
scalar IRTSystemXScenario.node[524].nic.mac1609_4 DroppedPacketsInMac 0
scalar IRTSystemXScenario.node[524].nic.mac1609_4 TooLittleTime 0
scalar IRTSystemXScenario.node[524].nic.mac1609_4 TimesIntoBackoff 19
scalar IRTSystemXScenario.node[524].nic.mac1609_4 SlotsBackoff 23
scalar IRTSystemXScenario.node[524].nic.mac1609_4 NumInternalContention 0
scalar IRTSystemXScenario.node[524].nic.mac1609_4 totalBusyTime 0.006363
scalar IRTSystemXScenario.node[524].nic.mac1609_4 retriesExceeded:count 0
attr source org_car2x_veins_modules_mac_sigRetriesExceeded
scalar IRTSystemXScenario.node[524].nic.mac1609_4 sentAcks:count 0
attr source org_car2x_veins_modules_mac_sigSentAck
scalar IRTSystemXScenario.node[524].nic.mac1609_4 sentPackets:count 19
attr source org_car2x_veins_modules_mac_sigSentPacket
scalar IRTSystemXScenario.node[524].nic.mac1609_4 collisions:count 0
attr source org_car2x_veins_modules_mac_sigCollision
scalar IRTSystemXScenario.node[524].nic.mac1609_4 channelBusy:timeavg 0.00033489473684211
attr source org_car2x_veins_modules_mac_sigChannelBusy
scalar IRTSystemXScenario.node[524].veinsmobility startTime 3581
scalar IRTSystemXScenario.node[524].veinsmobility totalTime 19
scalar IRTSystemXScenario.node[524].veinsmobility stopTime 3600
scalar IRTSystemXScenario.node[524].veinsmobility minSpeed 3.9914469741446
scalar IRTSystemXScenario.node[524].veinsmobility maxSpeed 9.3422847741465
scalar IRTSystemXScenario.node[524].veinsmobility totalDistance 119.6857832345
scalar IRTSystemXScenario.node[524].veinsmobility totalCO2Emission 35.825314308596
scalar IRTSystemXScenario.node[525].appl generatedWSMs 0
scalar IRTSystemXScenario.node[525].appl receivedWSMs 0
scalar IRTSystemXScenario.node[525].appl generatedBSMs 13
scalar IRTSystemXScenario.node[525].appl receivedBSMs 1
scalar IRTSystemXScenario.node[525].appl generatedWSAs 0
scalar IRTSystemXScenario.node[525].appl receivedWSAs 0
scalar IRTSystemXScenario.node[525].nic.phy80211p busyTime 8e-06
scalar IRTSystemXScenario.node[525].nic.mac1609_4 ReceivedUnicastPackets 0
scalar IRTSystemXScenario.node[525].nic.mac1609_4 ReceivedBroadcasts 1
scalar IRTSystemXScenario.node[525].nic.mac1609_4 SentPackets 13
scalar IRTSystemXScenario.node[525].nic.mac1609_4 SentAcknowledgements 0
scalar IRTSystemXScenario.node[525].nic.mac1609_4 RetriesExceeded 0
scalar IRTSystemXScenario.node[525].nic.mac1609_4 SNIRLostPackets 0
scalar IRTSystemXScenario.node[525].nic.mac1609_4 RXTXLostPackets 0
scalar IRTSystemXScenario.node[525].nic.mac1609_4 TotalLostPackets 0
scalar IRTSystemXScenario.node[525].nic.mac1609_4 DroppedPacketsInMac 0
scalar IRTSystemXScenario.node[525].nic.mac1609_4 TooLittleTime 0
scalar IRTSystemXScenario.node[525].nic.mac1609_4 TimesIntoBackoff 13
scalar IRTSystemXScenario.node[525].nic.mac1609_4 SlotsBackoff 15
scalar IRTSystemXScenario.node[525].nic.mac1609_4 NumInternalContention 0
scalar IRTSystemXScenario.node[525].nic.mac1609_4 totalBusyTime 0.001469
scalar IRTSystemXScenario.node[525].nic.mac1609_4 retriesExceeded:count 0
attr source org_car2x_veins_modules_mac_sigRetriesExceeded
scalar IRTSystemXScenario.node[525].nic.mac1609_4 sentAcks:count 0
attr source org_car2x_veins_modules_mac_sigSentAck
scalar IRTSystemXScenario.node[525].nic.mac1609_4 sentPackets:count 13
attr source org_car2x_veins_modules_mac_sigSentPacket
scalar IRTSystemXScenario.node[525].nic.mac1609_4 collisions:count 0
attr source org_car2x_veins_modules_mac_sigCollision
scalar IRTSystemXScenario.node[525].nic.mac1609_4 channelBusy:timeavg 0.000113
attr source org_car2x_veins_modules_mac_sigChannelBusy
scalar IRTSystemXScenario.node[525].veinsmobility startTime 3587
scalar IRTSystemXScenario.node[525].veinsmobility totalTime 13
scalar IRTSystemXScenario.node[525].veinsmobility stopTime 3600
scalar IRTSystemXScenario.node[525].veinsmobility minSpeed 4.3165146816264
scalar IRTSystemXScenario.node[525].veinsmobility maxSpeed 14.638121738779
scalar IRTSystemXScenario.node[525].veinsmobility totalDistance 151.28534783375
scalar IRTSystemXScenario.node[525].veinsmobility totalCO2Emission 48.661352732941
scalar IRTSystemXScenario.node[526].appl generatedWSMs 0
scalar IRTSystemXScenario.node[526].appl receivedWSMs 0
scalar IRTSystemXScenario.node[526].appl generatedBSMs 7
scalar IRTSystemXScenario.node[526].appl receivedBSMs 0
scalar IRTSystemXScenario.node[526].appl generatedWSAs 0
scalar IRTSystemXScenario.node[526].appl receivedWSAs 0
scalar IRTSystemXScenario.node[526].nic.phy80211p busyTime 0
scalar IRTSystemXScenario.node[526].nic.mac1609_4 ReceivedUnicastPackets 0
scalar IRTSystemXScenario.node[526].nic.mac1609_4 ReceivedBroadcasts 0
scalar IRTSystemXScenario.node[526].nic.mac1609_4 SentPackets 7
scalar IRTSystemXScenario.node[526].nic.mac1609_4 SentAcknowledgements 0
scalar IRTSystemXScenario.node[526].nic.mac1609_4 RetriesExceeded 0
scalar IRTSystemXScenario.node[526].nic.mac1609_4 SNIRLostPackets 0
scalar IRTSystemXScenario.node[526].nic.mac1609_4 RXTXLostPackets 0
scalar IRTSystemXScenario.node[526].nic.mac1609_4 TotalLostPackets 0
scalar IRTSystemXScenario.node[526].nic.mac1609_4 DroppedPacketsInMac 0
scalar IRTSystemXScenario.node[526].nic.mac1609_4 TooLittleTime 0
scalar IRTSystemXScenario.node[526].nic.mac1609_4 TimesIntoBackoff 7
scalar IRTSystemXScenario.node[526].nic.mac1609_4 SlotsBackoff 11
scalar IRTSystemXScenario.node[526].nic.mac1609_4 NumInternalContention 0
scalar IRTSystemXScenario.node[526].nic.mac1609_4 totalBusyTime 0.000735
scalar IRTSystemXScenario.node[526].nic.mac1609_4 retriesExceeded:count 0
attr source org_car2x_veins_modules_mac_sigRetriesExceeded
scalar IRTSystemXScenario.node[526].nic.mac1609_4 sentAcks:count 0
attr source org_car2x_veins_modules_mac_sigSentAck
scalar IRTSystemXScenario.node[526].nic.mac1609_4 sentPackets:count 7
attr source org_car2x_veins_modules_mac_sigSentPacket
scalar IRTSystemXScenario.node[526].nic.mac1609_4 collisions:count 0
attr source org_car2x_veins_modules_mac_sigCollision
scalar IRTSystemXScenario.node[526].nic.mac1609_4 channelBusy:timeavg 0.000105
attr source org_car2x_veins_modules_mac_sigChannelBusy
scalar IRTSystemXScenario.node[526].veinsmobility startTime 3593
scalar IRTSystemXScenario.node[526].veinsmobility totalTime 7
scalar IRTSystemXScenario.node[526].veinsmobility stopTime 3600
scalar IRTSystemXScenario.node[526].veinsmobility minSpeed 4.2037947739086
scalar IRTSystemXScenario.node[526].veinsmobility maxSpeed 8.5091979323702
scalar IRTSystemXScenario.node[526].veinsmobility totalDistance 50.03224061519
scalar IRTSystemXScenario.node[526].veinsmobility totalCO2Emission 16.838041950249
scalar IRTSystemXScenario.node[527].appl generatedWSMs 0
scalar IRTSystemXScenario.node[527].appl receivedWSMs 0
scalar IRTSystemXScenario.node[527].appl generatedBSMs 1
scalar IRTSystemXScenario.node[527].appl receivedBSMs 4
scalar IRTSystemXScenario.node[527].appl generatedWSAs 0
scalar IRTSystemXScenario.node[527].appl receivedWSAs 0
scalar IRTSystemXScenario.node[527].nic.phy80211p busyTime 0.000416
scalar IRTSystemXScenario.node[527].nic.mac1609_4 ReceivedUnicastPackets 0
scalar IRTSystemXScenario.node[527].nic.mac1609_4 ReceivedBroadcasts 4
scalar IRTSystemXScenario.node[527].nic.mac1609_4 SentPackets 1
scalar IRTSystemXScenario.node[527].nic.mac1609_4 SentAcknowledgements 0
scalar IRTSystemXScenario.node[527].nic.mac1609_4 RetriesExceeded 0
scalar IRTSystemXScenario.node[527].nic.mac1609_4 SNIRLostPackets 0
scalar IRTSystemXScenario.node[527].nic.mac1609_4 RXTXLostPackets 0
scalar IRTSystemXScenario.node[527].nic.mac1609_4 TotalLostPackets 0
scalar IRTSystemXScenario.node[527].nic.mac1609_4 DroppedPacketsInMac 0
scalar IRTSystemXScenario.node[527].nic.mac1609_4 TooLittleTime 0
scalar IRTSystemXScenario.node[527].nic.mac1609_4 TimesIntoBackoff 1
scalar IRTSystemXScenario.node[527].nic.mac1609_4 SlotsBackoff 0
scalar IRTSystemXScenario.node[527].nic.mac1609_4 NumInternalContention 0
scalar IRTSystemXScenario.node[527].nic.mac1609_4 totalBusyTime 0.000521
scalar IRTSystemXScenario.node[527].nic.mac1609_4 retriesExceeded:count 0
attr source org_car2x_veins_modules_mac_sigRetriesExceeded
scalar IRTSystemXScenario.node[527].nic.mac1609_4 sentAcks:count 0
attr source org_car2x_veins_modules_mac_sigSentAck
scalar IRTSystemXScenario.node[527].nic.mac1609_4 sentPackets:count 1
attr source org_car2x_veins_modules_mac_sigSentPacket
scalar IRTSystemXScenario.node[527].nic.mac1609_4 collisions:count 0
attr source org_car2x_veins_modules_mac_sigCollision
scalar IRTSystemXScenario.node[527].nic.mac1609_4 channelBusy:timeavg 0.000521
attr source org_car2x_veins_modules_mac_sigChannelBusy
scalar IRTSystemXScenario.node[527].veinsmobility startTime 3599
scalar IRTSystemXScenario.node[527].veinsmobility totalTime 1
scalar IRTSystemXScenario.node[527].veinsmobility stopTime 3600
scalar IRTSystemXScenario.node[527].veinsmobility minSpeed 3.9358231798903
scalar IRTSystemXScenario.node[527].veinsmobility maxSpeed 3.9358231798903
scalar IRTSystemXScenario.node[527].veinsmobility totalDistance 3.0732790224044
scalar IRTSystemXScenario.node[527].veinsmobility totalCO2Emission 0
scalar IRTSystemXScenario.manager roiArea 0

