version 2
run General-0-20210917-08:14:58-208270
attr configname General
attr datetime 20210917-08:14:58
attr experiment General
attr inifile omnetpp.ini
attr iterationvars ""
attr iterationvarsf ""
attr measurement ""
attr network RSUExampleScenario
attr processid 208270
attr repetition 0
attr replication #0
attr resultdir results
attr runnumber 0
attr seedset 0
param *.playgroundSizeX 2500m
param *.playgroundSizeY 2500m
param *.playgroundSizeZ 50m
param *.annotations.draw false
param *.manager.updateInterval 1s
param *.manager.host "\"localhost\""
param *.manager.port 9999
param *.manager.autoShutdown false
param *.manager.launchConfig "xmldoc(\"manhattan.launchd.xml\")"
param *.rsu[0].mobility.x 2000
param *.rsu[0].mobility.y 2000
param *.rsu[0].mobility.z 3
param *.rsu[*].applType "\"TraCIDemoRSU11p\""
param *.rsu[*].appl.headerLength "80 bit"
param *.rsu[*].appl.sendBeacons false
param *.rsu[*].appl.dataOnSch false
param *.rsu[*].appl.beaconInterval 1s
param *.rsu[*].appl.beaconUserPriority 7
param *.rsu[*].appl.dataUserPriority 5
param *.rsu[*].nic.phy80211p.antennaOffsetZ "0 m"
param *.connectionManager.sendDirect true
param *.connectionManager.maxInterfDist 420m
param *.connectionManager.drawMaxIntfDist true
param *.**.nic.mac1609_4.useServiceChannel false
param *.**.nic.mac1609_4.txPower 20mW
param *.**.nic.mac1609_4.bitrate 6Mbps
param *.**.nic.phy80211p.minPowerLevel -110dBm
param *.**.nic.phy80211p.useNoiseFloor true
param *.**.nic.phy80211p.noiseFloor -98dBm
param *.**.nic.phy80211p.decider "xmldoc(\"config.xml\")"
param *.**.nic.phy80211p.analogueModels "xmldoc(\"config.xml\")"
param *.**.nic.phy80211p.usePropagationDelay true
param *.**.nic.phy80211p.antenna "xmldoc(\"antenna.xml\", \"/root/Antenna[@id='monopole']\")"
param *.node[*].nic.phy80211p.antennaOffsetY "0 m"
param *.node[*].nic.phy80211p.antennaOffsetZ "1.895 m"
param *.node[*].nic.phy80211p.antennaOffsetX "-1 m"
param *.node[*].applType "\"JosephVeinsApp\""
param *.node[*].appl.headerLength "80 bit"
param *.node[*].appl.sendBeacons true
param *.node[*].appl.dataOnSch false
param *.node[*].appl.beaconInterval 1s
param *.node[*].appl.serialNumber "\"ManhattanGrid-ITSG5-trust-1\""
param *.node[*].appl.savePath "\"../../../f2md-results/sim-traces/\""
param *.node[*].appl.UseAttacksServer false
param *.node[*].appl.MixLocalAttacks false
param *.node[*].appl.RandomLocalMix false
param *.node[*].appl.LOCAL_ATTACKER_PROB 0.3
param *.node[*].appl.LOCAL_ATTACK_TYPE 3
param *.node[*].appl.GLOBAL_ATTACKER_PROB 0.0
param *.node[*].appl.GLOBAL_ATTACK_TYPE 20
param *.node[*].appl.EnablePC false
param *.node[*].appl.PC_TYPE 5
param *.node[*].appl.EnableV1 true
param *.node[*].appl.EnableV2 false
param *.node[*].appl.SaveStatsV1 true
param *.node[*].appl.SaveStatsV2 false
param *.node[*].appl.checksVersionV1 1
param *.node[*].appl.checksVersionV2 1
param *.node[*].appl.appTypeV1 0
param *.node[*].appl.appTypeV2 1
param *.node[*].appl.appl.REPORT_VERSION 2
param *.node[*].appl.sendReportsV1 false
param *.node[*].appl.sendReportsV2 false
param *.node[*].appl.maHostV1 "\"localhost\""
param *.node[*].appl.maHostV2 "\"localhost\""
param *.node[*].appl.maPortV1 9980
param *.node[*].appl.maPortV2 9981
param *.node[*].appl.writeSelfMsg false
param *.node[*].appl.writeListSelfMsg false
param *.node[*].appl.writeBsmsV1 false
param *.node[*].appl.writeBsmsV2 false
param *.node[*].appl.writeListBsmsV1 true
param *.node[*].appl.writeListBsmsV2 true
param *.node[*].appl.writeReportsV1 false
param *.node[*].appl.writeReportsV2 true
param *.node[*].appl.writeListReportsV1 false
param *.node[*].appl.writeListReportsV2 true
param *.node[*].appl.writeVeReMi true
param *.node[*].appl.VeReMiSliceTime 3600
param *.node[*].appl.veremiConf true
param *.node[*].appl.randomConf false
param *.node[*].appl.variableConf false
param *.node[*].appl.confPos 10.0
param *.node[*].appl.confSpd 0.05
param *.node[*].appl.confHea 20.0
param *.node[*].appl.confAcc 0.01
param *.node[*].appl.confPrec 100.0
param *.node[*].appl.minConf 0.20
param *.node[*].appl.SAVE_PERIOD 5
param *.node[*].appl.PRINT_PERIOD 60
param *.node[*].appl.START_SAVE 0
param *.node[*].appl.START_ATTACK 0
param *.node[*].appl.enableVarThreV1 false
param *.node[*].appl.enableVarThreV2 false
param *.node[*].appl.MAX_PROXIMITY_RANGE_L 30
param *.node[*].appl.MAX_PROXIMITY_RANGE_W 3
param *.node[*].appl.MAX_PROXIMITY_DISTANCE 2
param *.node[*].appl.MAX_CONFIDENCE_RANGE 10
param *.node[*].appl.MAX_PLAUSIBLE_RANGE 420
param *.node[*].appl.MAX_TIME_DELTA 3.1
param *.node[*].appl.MAX_DELTA_INTER 2.0
param *.node[*].appl.MAX_SA_RANGE 420
param *.node[*].appl.MAX_SA_TIME 2.1
param *.node[*].appl.MAX_KALMAN_TIME 3.1
param *.node[*].appl.KALMAN_POS_RANGE 1.0
param *.node[*].appl.KALMAN_SPEED_RANGE 4.0
param *.node[*].appl.KALMAN_MIN_POS_RANGE 4.0
param *.node[*].appl.KALMAN_MIN_SPEED_RANGE 1.0
param *.node[*].appl.MIN_MAX_SPEED 40
param *.node[*].appl.MIN_MAX_ACCEL 3
param *.node[*].appl.MIN_MAX_DECEL 4.5
param *.node[*].appl.MAX_MGT_RNG 4
param *.node[*].appl.MAX_MGT_RNG_DOWN 6.2
param *.node[*].appl.MAX_MGT_RNG_UP 2.1
param *.node[*].appl.MAX_BEACON_FREQUENCY 0.99
param *.node[*].appl.MAX_DISTANCE_FROM_ROUTE 2
param *.node[*].appl.MAX_NON_ROUTE_SPEED -1
param *.node[*].appl.MAX_HEADING_CHANGE 90
param *.node[*].appl.DELTA_BSM_TIME 5
param *.node[*].appl.DELTA_REPORT_TIME 5
param *.node[*].appl.POS_HEADING_TIME 1.1
param *.node[*].appl.MAX_TARGET_TIME 2
param *.node[*].appl.MAX_ACCUSED_TIME 2
param *.node[*].appl.parVar 0.55
param *.node[*].appl.RandomPosOffsetX 70.0
param *.node[*].appl.RandomPosOffsetY 70.0
param *.node[*].appl.RandomSpeedX 40.0
param *.node[*].appl.RandomSpeedY 40.0
param *.node[*].appl.RandomSpeedOffsetX 7.0
param *.node[*].appl.RandomSpeedOffsetY 7.0
param *.node[*].appl.RandomAccelX 2.0
param *.node[*].appl.RandomAccelY 2.0
param *.node[*].appl.StopProb 0.05
param *.node[*].appl.StaleMessages_Buffer 60
param *.node[*].appl.DosMultipleFreq 4
param *.node[*].appl.DosMultipleFreqSybil 2
param *.node[*].appl.ReplaySeqNum 6
param *.node[*].appl.SybilVehNumber 5
param *.node[*].appl.SelfSybil false
param *.node[*].appl.SybilDistanceX 5
param *.node[*].appl.SybilDistanceY 2
param *.node[*].appl.MyConstantPos 1000
param *.node[*].appl.Period_Change_Time 240
param *.node[*].appl.Tolerance_Buffer 10
param *.node[*].appl.Period_Change_Distance 80
param *.node[*].appl.Random_Change_Chance 0.1
param *.node[*].appl.InitialHistory 5
param *.node[*].appl.CollectionPeriod 10
param *.node[*].appl.UntolerancePeriod 5
param *.node[*].veinsmobilityType.debug true
param *.node[*].veinsmobility.x 0
param *.node[*].veinsmobility.y 0
param *.node[*].veinsmobility.z 1.895
param *.node[*].veinsmobility.setHostSpeed true
param *.node[*].veinsmobility.setHostAcceleration true
param *.node[*].veinsmobility.hostPositionOffset 1.25m

scalar RSUExampleScenario.node[0].appl generatedWSMs 0
scalar RSUExampleScenario.node[0].appl receivedWSMs 0
scalar RSUExampleScenario.node[0].appl generatedBSMs 19
scalar RSUExampleScenario.node[0].appl receivedBSMs 1021
scalar RSUExampleScenario.node[0].appl generatedWSAs 0
scalar RSUExampleScenario.node[0].appl receivedWSAs 0
scalar RSUExampleScenario.node[0].nic.phy80211p busyTime 0.006404210526316
scalar RSUExampleScenario.node[0].nic.mac1609_4 ReceivedUnicastPackets 0
scalar RSUExampleScenario.node[0].nic.mac1609_4 ReceivedBroadcasts 1021
scalar RSUExampleScenario.node[0].nic.mac1609_4 SentPackets 19
scalar RSUExampleScenario.node[0].nic.mac1609_4 SentAcknowledgements 0
scalar RSUExampleScenario.node[0].nic.mac1609_4 RetriesExceeded 0
scalar RSUExampleScenario.node[0].nic.mac1609_4 SNIRLostPackets 149
scalar RSUExampleScenario.node[0].nic.mac1609_4 RXTXLostPackets 0
scalar RSUExampleScenario.node[0].nic.mac1609_4 TotalLostPackets 149
scalar RSUExampleScenario.node[0].nic.mac1609_4 DroppedPacketsInMac 0
scalar RSUExampleScenario.node[0].nic.mac1609_4 TooLittleTime 0
scalar RSUExampleScenario.node[0].nic.mac1609_4 TimesIntoBackoff 19
scalar RSUExampleScenario.node[0].nic.mac1609_4 SlotsBackoff 30
scalar RSUExampleScenario.node[0].nic.mac1609_4 NumInternalContention 0
scalar RSUExampleScenario.node[0].nic.mac1609_4 totalBusyTime 0.119931
scalar RSUExampleScenario.node[0].nic.mac1609_4 retriesExceeded:count 0
attr source org_car2x_veins_modules_mac_sigRetriesExceeded
scalar RSUExampleScenario.node[0].nic.mac1609_4 sentAcks:count 0
attr source org_car2x_veins_modules_mac_sigSentAck
scalar RSUExampleScenario.node[0].nic.mac1609_4 sentPackets:count 19
attr source org_car2x_veins_modules_mac_sigSentPacket
scalar RSUExampleScenario.node[0].nic.mac1609_4 collisions:count 0
attr source org_car2x_veins_modules_mac_sigCollision
scalar RSUExampleScenario.node[0].nic.mac1609_4 channelBusy:timeavg 0.006312157894737
attr source org_car2x_veins_modules_mac_sigChannelBusy
scalar RSUExampleScenario.node[0].veinsmobility startTime 1
scalar RSUExampleScenario.node[0].veinsmobility totalTime 19
scalar RSUExampleScenario.node[0].veinsmobility stopTime 20
scalar RSUExampleScenario.node[0].veinsmobility minSpeed 6.0615023889519
scalar RSUExampleScenario.node[0].veinsmobility maxSpeed 15.44683481549
scalar RSUExampleScenario.node[0].veinsmobility totalDistance 219.7540465713
scalar RSUExampleScenario.node[0].veinsmobility totalCO2Emission 74.61503785403
scalar RSUExampleScenario.node[1].appl generatedWSMs 0
scalar RSUExampleScenario.node[1].appl receivedWSMs 0
scalar RSUExampleScenario.node[1].appl generatedBSMs 19
scalar RSUExampleScenario.node[1].appl receivedBSMs 922
scalar RSUExampleScenario.node[1].appl generatedWSAs 0
scalar RSUExampleScenario.node[1].appl receivedWSAs 0
scalar RSUExampleScenario.node[1].nic.phy80211p busyTime 0.005375157894737
scalar RSUExampleScenario.node[1].nic.mac1609_4 ReceivedUnicastPackets 0
scalar RSUExampleScenario.node[1].nic.mac1609_4 ReceivedBroadcasts 922
scalar RSUExampleScenario.node[1].nic.mac1609_4 SentPackets 19
scalar RSUExampleScenario.node[1].nic.mac1609_4 SentAcknowledgements 0
scalar RSUExampleScenario.node[1].nic.mac1609_4 RetriesExceeded 0
scalar RSUExampleScenario.node[1].nic.mac1609_4 SNIRLostPackets 60
scalar RSUExampleScenario.node[1].nic.mac1609_4 RXTXLostPackets 0
scalar RSUExampleScenario.node[1].nic.mac1609_4 TotalLostPackets 60
scalar RSUExampleScenario.node[1].nic.mac1609_4 DroppedPacketsInMac 0
scalar RSUExampleScenario.node[1].nic.mac1609_4 TooLittleTime 0
scalar RSUExampleScenario.node[1].nic.mac1609_4 TimesIntoBackoff 19
scalar RSUExampleScenario.node[1].nic.mac1609_4 SlotsBackoff 27
scalar RSUExampleScenario.node[1].nic.mac1609_4 NumInternalContention 0
scalar RSUExampleScenario.node[1].nic.mac1609_4 totalBusyTime 0.104123
scalar RSUExampleScenario.node[1].nic.mac1609_4 retriesExceeded:count 0
attr source org_car2x_veins_modules_mac_sigRetriesExceeded
scalar RSUExampleScenario.node[1].nic.mac1609_4 sentAcks:count 0
attr source org_car2x_veins_modules_mac_sigSentAck
scalar RSUExampleScenario.node[1].nic.mac1609_4 sentPackets:count 19
attr source org_car2x_veins_modules_mac_sigSentPacket
scalar RSUExampleScenario.node[1].nic.mac1609_4 collisions:count 0
attr source org_car2x_veins_modules_mac_sigCollision
scalar RSUExampleScenario.node[1].nic.mac1609_4 channelBusy:timeavg 0.005480157894737
attr source org_car2x_veins_modules_mac_sigChannelBusy
scalar RSUExampleScenario.node[1].veinsmobility startTime 1
scalar RSUExampleScenario.node[1].veinsmobility totalTime 19
scalar RSUExampleScenario.node[1].veinsmobility stopTime 20
scalar RSUExampleScenario.node[1].veinsmobility minSpeed 2.5994725323478
scalar RSUExampleScenario.node[1].veinsmobility maxSpeed 14.465382648252
scalar RSUExampleScenario.node[1].veinsmobility totalDistance 166.22793783402
scalar RSUExampleScenario.node[1].veinsmobility totalCO2Emission 71.199670299034
scalar RSUExampleScenario.node[2].appl generatedWSMs 0
scalar RSUExampleScenario.node[2].appl receivedWSMs 0
scalar RSUExampleScenario.node[2].appl generatedBSMs 19
scalar RSUExampleScenario.node[2].appl receivedBSMs 721
scalar RSUExampleScenario.node[2].appl generatedWSAs 0
scalar RSUExampleScenario.node[2].appl receivedWSAs 0
scalar RSUExampleScenario.node[2].nic.phy80211p busyTime 0.0042147368421053
scalar RSUExampleScenario.node[2].nic.mac1609_4 ReceivedUnicastPackets 0
scalar RSUExampleScenario.node[2].nic.mac1609_4 ReceivedBroadcasts 721
scalar RSUExampleScenario.node[2].nic.mac1609_4 SentPackets 19
scalar RSUExampleScenario.node[2].nic.mac1609_4 SentAcknowledgements 0
scalar RSUExampleScenario.node[2].nic.mac1609_4 RetriesExceeded 0
scalar RSUExampleScenario.node[2].nic.mac1609_4 SNIRLostPackets 49
scalar RSUExampleScenario.node[2].nic.mac1609_4 RXTXLostPackets 0
scalar RSUExampleScenario.node[2].nic.mac1609_4 TotalLostPackets 49
scalar RSUExampleScenario.node[2].nic.mac1609_4 DroppedPacketsInMac 0
scalar RSUExampleScenario.node[2].nic.mac1609_4 TooLittleTime 0
scalar RSUExampleScenario.node[2].nic.mac1609_4 TimesIntoBackoff 19
scalar RSUExampleScenario.node[2].nic.mac1609_4 SlotsBackoff 32
scalar RSUExampleScenario.node[2].nic.mac1609_4 NumInternalContention 0
scalar RSUExampleScenario.node[2].nic.mac1609_4 totalBusyTime 0.081867
scalar RSUExampleScenario.node[2].nic.mac1609_4 retriesExceeded:count 0
attr source org_car2x_veins_modules_mac_sigRetriesExceeded
scalar RSUExampleScenario.node[2].nic.mac1609_4 sentAcks:count 0
attr source org_car2x_veins_modules_mac_sigSentAck
scalar RSUExampleScenario.node[2].nic.mac1609_4 sentPackets:count 19
attr source org_car2x_veins_modules_mac_sigSentPacket
scalar RSUExampleScenario.node[2].nic.mac1609_4 collisions:count 0
attr source org_car2x_veins_modules_mac_sigCollision
scalar RSUExampleScenario.node[2].nic.mac1609_4 channelBusy:timeavg 0.0043087894736843
attr source org_car2x_veins_modules_mac_sigChannelBusy
scalar RSUExampleScenario.node[2].veinsmobility startTime 1
scalar RSUExampleScenario.node[2].veinsmobility totalTime 19
scalar RSUExampleScenario.node[2].veinsmobility stopTime 20
scalar RSUExampleScenario.node[2].veinsmobility minSpeed 6.5867258365818
scalar RSUExampleScenario.node[2].veinsmobility maxSpeed 14.25370724504
scalar RSUExampleScenario.node[2].veinsmobility totalDistance 205.60545545207
scalar RSUExampleScenario.node[2].veinsmobility totalCO2Emission 69.638556392973
scalar RSUExampleScenario.node[3].appl generatedWSMs 0
scalar RSUExampleScenario.node[3].appl receivedWSMs 0
scalar RSUExampleScenario.node[3].appl generatedBSMs 19
scalar RSUExampleScenario.node[3].appl receivedBSMs 653
scalar RSUExampleScenario.node[3].appl generatedWSAs 0
scalar RSUExampleScenario.node[3].appl receivedWSAs 0
scalar RSUExampleScenario.node[3].nic.phy80211p busyTime 0.0037987368421053
scalar RSUExampleScenario.node[3].nic.mac1609_4 ReceivedUnicastPackets 0
scalar RSUExampleScenario.node[3].nic.mac1609_4 ReceivedBroadcasts 653
scalar RSUExampleScenario.node[3].nic.mac1609_4 SentPackets 19
scalar RSUExampleScenario.node[3].nic.mac1609_4 SentAcknowledgements 0
scalar RSUExampleScenario.node[3].nic.mac1609_4 RetriesExceeded 0
scalar RSUExampleScenario.node[3].nic.mac1609_4 SNIRLostPackets 41
scalar RSUExampleScenario.node[3].nic.mac1609_4 RXTXLostPackets 0
scalar RSUExampleScenario.node[3].nic.mac1609_4 TotalLostPackets 41
scalar RSUExampleScenario.node[3].nic.mac1609_4 DroppedPacketsInMac 0
scalar RSUExampleScenario.node[3].nic.mac1609_4 TooLittleTime 0
scalar RSUExampleScenario.node[3].nic.mac1609_4 TimesIntoBackoff 19
scalar RSUExampleScenario.node[3].nic.mac1609_4 SlotsBackoff 36
scalar RSUExampleScenario.node[3].nic.mac1609_4 NumInternalContention 0
scalar RSUExampleScenario.node[3].nic.mac1609_4 totalBusyTime 0.074171
scalar RSUExampleScenario.node[3].nic.mac1609_4 retriesExceeded:count 0
attr source org_car2x_veins_modules_mac_sigRetriesExceeded
scalar RSUExampleScenario.node[3].nic.mac1609_4 sentAcks:count 0
attr source org_car2x_veins_modules_mac_sigSentAck
scalar RSUExampleScenario.node[3].nic.mac1609_4 sentPackets:count 19
attr source org_car2x_veins_modules_mac_sigSentPacket
scalar RSUExampleScenario.node[3].nic.mac1609_4 collisions:count 0
attr source org_car2x_veins_modules_mac_sigCollision
scalar RSUExampleScenario.node[3].nic.mac1609_4 channelBusy:timeavg 0.0039037368421053
attr source org_car2x_veins_modules_mac_sigChannelBusy
scalar RSUExampleScenario.node[3].veinsmobility startTime 1
scalar RSUExampleScenario.node[3].veinsmobility totalTime 19
scalar RSUExampleScenario.node[3].veinsmobility stopTime 20
scalar RSUExampleScenario.node[3].veinsmobility minSpeed 6.4963296515572
scalar RSUExampleScenario.node[3].veinsmobility maxSpeed 14.097075429177
scalar RSUExampleScenario.node[3].veinsmobility totalDistance 199.90092732128
scalar RSUExampleScenario.node[3].veinsmobility totalCO2Emission 71.139555022441
scalar RSUExampleScenario.node[4].appl generatedWSMs 0
scalar RSUExampleScenario.node[4].appl receivedWSMs 0
scalar RSUExampleScenario.node[4].appl generatedBSMs 19
scalar RSUExampleScenario.node[4].appl receivedBSMs 762
scalar RSUExampleScenario.node[4].appl generatedWSAs 0
scalar RSUExampleScenario.node[4].appl receivedWSAs 0
scalar RSUExampleScenario.node[4].nic.phy80211p busyTime 0.0047894736842106
scalar RSUExampleScenario.node[4].nic.mac1609_4 ReceivedUnicastPackets 0
scalar RSUExampleScenario.node[4].nic.mac1609_4 ReceivedBroadcasts 762
scalar RSUExampleScenario.node[4].nic.mac1609_4 SentPackets 19
scalar RSUExampleScenario.node[4].nic.mac1609_4 SentAcknowledgements 0
scalar RSUExampleScenario.node[4].nic.mac1609_4 RetriesExceeded 0
scalar RSUExampleScenario.node[4].nic.mac1609_4 SNIRLostPackets 113
scalar RSUExampleScenario.node[4].nic.mac1609_4 RXTXLostPackets 0
scalar RSUExampleScenario.node[4].nic.mac1609_4 TotalLostPackets 113
scalar RSUExampleScenario.node[4].nic.mac1609_4 DroppedPacketsInMac 0
scalar RSUExampleScenario.node[4].nic.mac1609_4 TooLittleTime 0
scalar RSUExampleScenario.node[4].nic.mac1609_4 TimesIntoBackoff 19
scalar RSUExampleScenario.node[4].nic.mac1609_4 SlotsBackoff 29
scalar RSUExampleScenario.node[4].nic.mac1609_4 NumInternalContention 0
scalar RSUExampleScenario.node[4].nic.mac1609_4 totalBusyTime 0.090291
scalar RSUExampleScenario.node[4].nic.mac1609_4 retriesExceeded:count 0
attr source org_car2x_veins_modules_mac_sigRetriesExceeded
scalar RSUExampleScenario.node[4].nic.mac1609_4 sentAcks:count 0
attr source org_car2x_veins_modules_mac_sigSentAck
scalar RSUExampleScenario.node[4].nic.mac1609_4 sentPackets:count 19
attr source org_car2x_veins_modules_mac_sigSentPacket
scalar RSUExampleScenario.node[4].nic.mac1609_4 collisions:count 0
attr source org_car2x_veins_modules_mac_sigCollision
scalar RSUExampleScenario.node[4].nic.mac1609_4 channelBusy:timeavg 0.0047521578947369
attr source org_car2x_veins_modules_mac_sigChannelBusy
scalar RSUExampleScenario.node[4].veinsmobility startTime 1
scalar RSUExampleScenario.node[4].veinsmobility totalTime 19
scalar RSUExampleScenario.node[4].veinsmobility stopTime 20
scalar RSUExampleScenario.node[4].veinsmobility minSpeed 5.643749182841
scalar RSUExampleScenario.node[4].veinsmobility maxSpeed 12.257196539231
scalar RSUExampleScenario.node[4].veinsmobility totalDistance 190.8185980003
scalar RSUExampleScenario.node[4].veinsmobility totalCO2Emission 57.914031862949
scalar RSUExampleScenario.node[5].appl generatedWSMs 0
scalar RSUExampleScenario.node[5].appl receivedWSMs 0
scalar RSUExampleScenario.node[5].appl generatedBSMs 19
scalar RSUExampleScenario.node[5].appl receivedBSMs 431
scalar RSUExampleScenario.node[5].appl generatedWSAs 0
scalar RSUExampleScenario.node[5].appl receivedWSAs 0
scalar RSUExampleScenario.node[5].nic.phy80211p busyTime 0.0025069473684211
scalar RSUExampleScenario.node[5].nic.mac1609_4 ReceivedUnicastPackets 0
scalar RSUExampleScenario.node[5].nic.mac1609_4 ReceivedBroadcasts 431
scalar RSUExampleScenario.node[5].nic.mac1609_4 SentPackets 19
scalar RSUExampleScenario.node[5].nic.mac1609_4 SentAcknowledgements 0
scalar RSUExampleScenario.node[5].nic.mac1609_4 RetriesExceeded 0
scalar RSUExampleScenario.node[5].nic.mac1609_4 SNIRLostPackets 27
scalar RSUExampleScenario.node[5].nic.mac1609_4 RXTXLostPackets 0
scalar RSUExampleScenario.node[5].nic.mac1609_4 TotalLostPackets 27
scalar RSUExampleScenario.node[5].nic.mac1609_4 DroppedPacketsInMac 0
scalar RSUExampleScenario.node[5].nic.mac1609_4 TooLittleTime 0
scalar RSUExampleScenario.node[5].nic.mac1609_4 TimesIntoBackoff 19
scalar RSUExampleScenario.node[5].nic.mac1609_4 SlotsBackoff 31
scalar RSUExampleScenario.node[5].nic.mac1609_4 NumInternalContention 0
scalar RSUExampleScenario.node[5].nic.mac1609_4 totalBusyTime 0.049627
scalar RSUExampleScenario.node[5].nic.mac1609_4 retriesExceeded:count 0
attr source org_car2x_veins_modules_mac_sigRetriesExceeded
scalar RSUExampleScenario.node[5].nic.mac1609_4 sentAcks:count 0
attr source org_car2x_veins_modules_mac_sigSentAck
scalar RSUExampleScenario.node[5].nic.mac1609_4 sentPackets:count 19
attr source org_car2x_veins_modules_mac_sigSentPacket
scalar RSUExampleScenario.node[5].nic.mac1609_4 collisions:count 0
attr source org_car2x_veins_modules_mac_sigCollision
scalar RSUExampleScenario.node[5].nic.mac1609_4 channelBusy:timeavg 0.0026119473684211
attr source org_car2x_veins_modules_mac_sigChannelBusy
scalar RSUExampleScenario.node[5].veinsmobility startTime 1
scalar RSUExampleScenario.node[5].veinsmobility totalTime 19
scalar RSUExampleScenario.node[5].veinsmobility stopTime 20
scalar RSUExampleScenario.node[5].veinsmobility minSpeed 7.5121916072068
scalar RSUExampleScenario.node[5].veinsmobility maxSpeed 16.04427920457
scalar RSUExampleScenario.node[5].veinsmobility totalDistance 223.85962862633
scalar RSUExampleScenario.node[5].veinsmobility totalCO2Emission 66.579165985447
scalar RSUExampleScenario.node[6].appl generatedWSMs 0
scalar RSUExampleScenario.node[6].appl receivedWSMs 0
scalar RSUExampleScenario.node[6].appl generatedBSMs 19
scalar RSUExampleScenario.node[6].appl receivedBSMs 731
scalar RSUExampleScenario.node[6].appl generatedWSAs 0
scalar RSUExampleScenario.node[6].appl receivedWSAs 0
scalar RSUExampleScenario.node[6].nic.phy80211p busyTime 0.0043680000000001
scalar RSUExampleScenario.node[6].nic.mac1609_4 ReceivedUnicastPackets 0
scalar RSUExampleScenario.node[6].nic.mac1609_4 ReceivedBroadcasts 731
scalar RSUExampleScenario.node[6].nic.mac1609_4 SentPackets 19
scalar RSUExampleScenario.node[6].nic.mac1609_4 SentAcknowledgements 0
scalar RSUExampleScenario.node[6].nic.mac1609_4 RetriesExceeded 0
scalar RSUExampleScenario.node[6].nic.mac1609_4 SNIRLostPackets 67
scalar RSUExampleScenario.node[6].nic.mac1609_4 RXTXLostPackets 0
scalar RSUExampleScenario.node[6].nic.mac1609_4 TotalLostPackets 67
scalar RSUExampleScenario.node[6].nic.mac1609_4 DroppedPacketsInMac 0
scalar RSUExampleScenario.node[6].nic.mac1609_4 TooLittleTime 0
scalar RSUExampleScenario.node[6].nic.mac1609_4 TimesIntoBackoff 19
scalar RSUExampleScenario.node[6].nic.mac1609_4 SlotsBackoff 28
scalar RSUExampleScenario.node[6].nic.mac1609_4 NumInternalContention 0
scalar RSUExampleScenario.node[6].nic.mac1609_4 totalBusyTime 0.084051
scalar RSUExampleScenario.node[6].nic.mac1609_4 retriesExceeded:count 0
attr source org_car2x_veins_modules_mac_sigRetriesExceeded
scalar RSUExampleScenario.node[6].nic.mac1609_4 sentAcks:count 0
attr source org_car2x_veins_modules_mac_sigSentAck
scalar RSUExampleScenario.node[6].nic.mac1609_4 sentPackets:count 19
attr source org_car2x_veins_modules_mac_sigSentPacket
scalar RSUExampleScenario.node[6].nic.mac1609_4 collisions:count 0
attr source org_car2x_veins_modules_mac_sigCollision
scalar RSUExampleScenario.node[6].nic.mac1609_4 channelBusy:timeavg 0.0044237368421053
attr source org_car2x_veins_modules_mac_sigChannelBusy
scalar RSUExampleScenario.node[6].veinsmobility startTime 1
scalar RSUExampleScenario.node[6].veinsmobility totalTime 19
scalar RSUExampleScenario.node[6].veinsmobility stopTime 20
scalar RSUExampleScenario.node[6].veinsmobility minSpeed 6.0691820089483
scalar RSUExampleScenario.node[6].veinsmobility maxSpeed 13.100798609669
scalar RSUExampleScenario.node[6].veinsmobility totalDistance 186.05110346911
scalar RSUExampleScenario.node[6].veinsmobility totalCO2Emission 62.985111443226
scalar RSUExampleScenario.node[7].appl generatedWSMs 0
scalar RSUExampleScenario.node[7].appl receivedWSMs 0
scalar RSUExampleScenario.node[7].appl generatedBSMs 19
scalar RSUExampleScenario.node[7].appl receivedBSMs 783
scalar RSUExampleScenario.node[7].appl generatedWSAs 0
scalar RSUExampleScenario.node[7].appl receivedWSAs 0
scalar RSUExampleScenario.node[7].nic.phy80211p busyTime 0.005167157894737
scalar RSUExampleScenario.node[7].nic.mac1609_4 ReceivedUnicastPackets 0
scalar RSUExampleScenario.node[7].nic.mac1609_4 ReceivedBroadcasts 783
scalar RSUExampleScenario.node[7].nic.mac1609_4 SentPackets 19
scalar RSUExampleScenario.node[7].nic.mac1609_4 SentAcknowledgements 0
scalar RSUExampleScenario.node[7].nic.mac1609_4 RetriesExceeded 0
scalar RSUExampleScenario.node[7].nic.mac1609_4 SNIRLostPackets 161
scalar RSUExampleScenario.node[7].nic.mac1609_4 RXTXLostPackets 0
scalar RSUExampleScenario.node[7].nic.mac1609_4 TotalLostPackets 161
scalar RSUExampleScenario.node[7].nic.mac1609_4 DroppedPacketsInMac 0
scalar RSUExampleScenario.node[7].nic.mac1609_4 TooLittleTime 0
scalar RSUExampleScenario.node[7].nic.mac1609_4 TimesIntoBackoff 19
scalar RSUExampleScenario.node[7].nic.mac1609_4 SlotsBackoff 29
scalar RSUExampleScenario.node[7].nic.mac1609_4 NumInternalContention 0
scalar RSUExampleScenario.node[7].nic.mac1609_4 totalBusyTime 0.096219
scalar RSUExampleScenario.node[7].nic.mac1609_4 retriesExceeded:count 0
attr source org_car2x_veins_modules_mac_sigRetriesExceeded
scalar RSUExampleScenario.node[7].nic.mac1609_4 sentAcks:count 0
attr source org_car2x_veins_modules_mac_sigSentAck
scalar RSUExampleScenario.node[7].nic.mac1609_4 sentPackets:count 19
attr source org_car2x_veins_modules_mac_sigSentPacket
scalar RSUExampleScenario.node[7].nic.mac1609_4 collisions:count 0
attr source org_car2x_veins_modules_mac_sigCollision
scalar RSUExampleScenario.node[7].nic.mac1609_4 channelBusy:timeavg 0.005064157894737
attr source org_car2x_veins_modules_mac_sigChannelBusy
scalar RSUExampleScenario.node[7].veinsmobility startTime 1
scalar RSUExampleScenario.node[7].veinsmobility totalTime 19
scalar RSUExampleScenario.node[7].veinsmobility stopTime 20
scalar RSUExampleScenario.node[7].veinsmobility minSpeed 4.8842927623088
scalar RSUExampleScenario.node[7].veinsmobility maxSpeed 10.612839432634
scalar RSUExampleScenario.node[7].veinsmobility totalDistance 178.01613154223
scalar RSUExampleScenario.node[7].veinsmobility totalCO2Emission 40.030591743804
scalar RSUExampleScenario.node[8].appl generatedWSMs 0
scalar RSUExampleScenario.node[8].appl receivedWSMs 0
scalar RSUExampleScenario.node[8].appl generatedBSMs 19
scalar RSUExampleScenario.node[8].appl receivedBSMs 845
scalar RSUExampleScenario.node[8].appl generatedWSAs 0
scalar RSUExampleScenario.node[8].appl receivedWSAs 0
scalar RSUExampleScenario.node[8].nic.phy80211p busyTime 0.0052602105263159
scalar RSUExampleScenario.node[8].nic.mac1609_4 ReceivedUnicastPackets 0
scalar RSUExampleScenario.node[8].nic.mac1609_4 ReceivedBroadcasts 845
scalar RSUExampleScenario.node[8].nic.mac1609_4 SentPackets 19
scalar RSUExampleScenario.node[8].nic.mac1609_4 SentAcknowledgements 0
scalar RSUExampleScenario.node[8].nic.mac1609_4 RetriesExceeded 0
scalar RSUExampleScenario.node[8].nic.mac1609_4 SNIRLostPackets 116
scalar RSUExampleScenario.node[8].nic.mac1609_4 RXTXLostPackets 0
scalar RSUExampleScenario.node[8].nic.mac1609_4 TotalLostPackets 116
scalar RSUExampleScenario.node[8].nic.mac1609_4 DroppedPacketsInMac 0
scalar RSUExampleScenario.node[8].nic.mac1609_4 TooLittleTime 0
scalar RSUExampleScenario.node[8].nic.mac1609_4 TimesIntoBackoff 19
scalar RSUExampleScenario.node[8].nic.mac1609_4 SlotsBackoff 30
scalar RSUExampleScenario.node[8].nic.mac1609_4 NumInternalContention 0
scalar RSUExampleScenario.node[8].nic.mac1609_4 totalBusyTime 0.101211
scalar RSUExampleScenario.node[8].nic.mac1609_4 retriesExceeded:count 0
attr source org_car2x_veins_modules_mac_sigRetriesExceeded
scalar RSUExampleScenario.node[8].nic.mac1609_4 sentAcks:count 0
attr source org_car2x_veins_modules_mac_sigSentAck
scalar RSUExampleScenario.node[8].nic.mac1609_4 sentPackets:count 19
attr source org_car2x_veins_modules_mac_sigSentPacket
scalar RSUExampleScenario.node[8].nic.mac1609_4 collisions:count 0
attr source org_car2x_veins_modules_mac_sigCollision
scalar RSUExampleScenario.node[8].nic.mac1609_4 channelBusy:timeavg 0.0053268947368422
attr source org_car2x_veins_modules_mac_sigChannelBusy
scalar RSUExampleScenario.node[8].veinsmobility startTime 1
scalar RSUExampleScenario.node[8].veinsmobility totalTime 19
scalar RSUExampleScenario.node[8].veinsmobility stopTime 20
scalar RSUExampleScenario.node[8].veinsmobility minSpeed 2.4994458025066
scalar RSUExampleScenario.node[8].veinsmobility maxSpeed 14.581262739711
scalar RSUExampleScenario.node[8].veinsmobility totalDistance 189.75634746169
scalar RSUExampleScenario.node[8].veinsmobility totalCO2Emission 77.664980718222
scalar RSUExampleScenario.node[9].appl generatedWSMs 0
scalar RSUExampleScenario.node[9].appl receivedWSMs 0
scalar RSUExampleScenario.node[9].appl generatedBSMs 19
scalar RSUExampleScenario.node[9].appl receivedBSMs 664
scalar RSUExampleScenario.node[9].appl generatedWSAs 0
scalar RSUExampleScenario.node[9].appl receivedWSAs 0
scalar RSUExampleScenario.node[9].nic.phy80211p busyTime 0.0038917894736842
scalar RSUExampleScenario.node[9].nic.mac1609_4 ReceivedUnicastPackets 0
scalar RSUExampleScenario.node[9].nic.mac1609_4 ReceivedBroadcasts 664
scalar RSUExampleScenario.node[9].nic.mac1609_4 SentPackets 19
scalar RSUExampleScenario.node[9].nic.mac1609_4 SentAcknowledgements 0
scalar RSUExampleScenario.node[9].nic.mac1609_4 RetriesExceeded 0
scalar RSUExampleScenario.node[9].nic.mac1609_4 SNIRLostPackets 47
scalar RSUExampleScenario.node[9].nic.mac1609_4 RXTXLostPackets 0
scalar RSUExampleScenario.node[9].nic.mac1609_4 TotalLostPackets 47
scalar RSUExampleScenario.node[9].nic.mac1609_4 DroppedPacketsInMac 0
scalar RSUExampleScenario.node[9].nic.mac1609_4 TooLittleTime 0
scalar RSUExampleScenario.node[9].nic.mac1609_4 TimesIntoBackoff 19
scalar RSUExampleScenario.node[9].nic.mac1609_4 SlotsBackoff 26
scalar RSUExampleScenario.node[9].nic.mac1609_4 NumInternalContention 0
scalar RSUExampleScenario.node[9].nic.mac1609_4 totalBusyTime 0.075835
scalar RSUExampleScenario.node[9].nic.mac1609_4 retriesExceeded:count 0
attr source org_car2x_veins_modules_mac_sigRetriesExceeded
scalar RSUExampleScenario.node[9].nic.mac1609_4 sentAcks:count 0
attr source org_car2x_veins_modules_mac_sigSentAck
scalar RSUExampleScenario.node[9].nic.mac1609_4 sentPackets:count 19
attr source org_car2x_veins_modules_mac_sigSentPacket
scalar RSUExampleScenario.node[9].nic.mac1609_4 collisions:count 0
attr source org_car2x_veins_modules_mac_sigCollision
scalar RSUExampleScenario.node[9].nic.mac1609_4 channelBusy:timeavg 0.0039913157894737
attr source org_car2x_veins_modules_mac_sigChannelBusy
scalar RSUExampleScenario.node[9].veinsmobility startTime 1
scalar RSUExampleScenario.node[9].veinsmobility totalTime 19
scalar RSUExampleScenario.node[9].veinsmobility stopTime 20
scalar RSUExampleScenario.node[9].veinsmobility minSpeed 5.7329955690558
scalar RSUExampleScenario.node[9].veinsmobility maxSpeed 17.445518560154
scalar RSUExampleScenario.node[9].veinsmobility totalDistance 207.06807783209
scalar RSUExampleScenario.node[9].veinsmobility totalCO2Emission 79.306787859929
scalar RSUExampleScenario.node[10].appl generatedWSMs 0
scalar RSUExampleScenario.node[10].appl receivedWSMs 0
scalar RSUExampleScenario.node[10].appl generatedBSMs 19
scalar RSUExampleScenario.node[10].appl receivedBSMs 573
scalar RSUExampleScenario.node[10].appl generatedWSAs 0
scalar RSUExampleScenario.node[10].appl receivedWSAs 0
scalar RSUExampleScenario.node[10].nic.phy80211p busyTime 0.00364
scalar RSUExampleScenario.node[10].nic.mac1609_4 ReceivedUnicastPackets 0
scalar RSUExampleScenario.node[10].nic.mac1609_4 ReceivedBroadcasts 573
scalar RSUExampleScenario.node[10].nic.mac1609_4 SentPackets 19
scalar RSUExampleScenario.node[10].nic.mac1609_4 SentAcknowledgements 0
scalar RSUExampleScenario.node[10].nic.mac1609_4 RetriesExceeded 0
scalar RSUExampleScenario.node[10].nic.mac1609_4 SNIRLostPackets 92
scalar RSUExampleScenario.node[10].nic.mac1609_4 RXTXLostPackets 0
scalar RSUExampleScenario.node[10].nic.mac1609_4 TotalLostPackets 92
scalar RSUExampleScenario.node[10].nic.mac1609_4 DroppedPacketsInMac 0
scalar RSUExampleScenario.node[10].nic.mac1609_4 TooLittleTime 0
scalar RSUExampleScenario.node[10].nic.mac1609_4 TimesIntoBackoff 19
scalar RSUExampleScenario.node[10].nic.mac1609_4 SlotsBackoff 29
scalar RSUExampleScenario.node[10].nic.mac1609_4 NumInternalContention 0
scalar RSUExampleScenario.node[10].nic.mac1609_4 totalBusyTime 0.069491
scalar RSUExampleScenario.node[10].nic.mac1609_4 retriesExceeded:count 0
attr source org_car2x_veins_modules_mac_sigRetriesExceeded
scalar RSUExampleScenario.node[10].nic.mac1609_4 sentAcks:count 0
attr source org_car2x_veins_modules_mac_sigSentAck
scalar RSUExampleScenario.node[10].nic.mac1609_4 sentPackets:count 19
attr source org_car2x_veins_modules_mac_sigSentPacket
scalar RSUExampleScenario.node[10].nic.mac1609_4 collisions:count 0
attr source org_car2x_veins_modules_mac_sigCollision
scalar RSUExampleScenario.node[10].nic.mac1609_4 channelBusy:timeavg 0.0036574210526316
attr source org_car2x_veins_modules_mac_sigChannelBusy
scalar RSUExampleScenario.node[10].veinsmobility startTime 1
scalar RSUExampleScenario.node[10].veinsmobility totalTime 19
scalar RSUExampleScenario.node[10].veinsmobility stopTime 20
scalar RSUExampleScenario.node[10].veinsmobility minSpeed 6.6983121085551
scalar RSUExampleScenario.node[10].veinsmobility maxSpeed 15.585157238607
scalar RSUExampleScenario.node[10].veinsmobility totalDistance 218.511370616
scalar RSUExampleScenario.node[10].veinsmobility totalCO2Emission 81.744755545035
scalar RSUExampleScenario.node[11].appl generatedWSMs 0
scalar RSUExampleScenario.node[11].appl receivedWSMs 0
scalar RSUExampleScenario.node[11].appl generatedBSMs 19
scalar RSUExampleScenario.node[11].appl receivedBSMs 877
scalar RSUExampleScenario.node[11].appl generatedWSAs 0
scalar RSUExampleScenario.node[11].appl receivedWSAs 0
scalar RSUExampleScenario.node[11].nic.phy80211p busyTime 0.0053806315789475
scalar RSUExampleScenario.node[11].nic.mac1609_4 ReceivedUnicastPackets 0
scalar RSUExampleScenario.node[11].nic.mac1609_4 ReceivedBroadcasts 877
scalar RSUExampleScenario.node[11].nic.mac1609_4 SentPackets 19
scalar RSUExampleScenario.node[11].nic.mac1609_4 SentAcknowledgements 0
scalar RSUExampleScenario.node[11].nic.mac1609_4 RetriesExceeded 0
scalar RSUExampleScenario.node[11].nic.mac1609_4 SNIRLostPackets 106
scalar RSUExampleScenario.node[11].nic.mac1609_4 RXTXLostPackets 0
scalar RSUExampleScenario.node[11].nic.mac1609_4 TotalLostPackets 106
scalar RSUExampleScenario.node[11].nic.mac1609_4 DroppedPacketsInMac 0
scalar RSUExampleScenario.node[11].nic.mac1609_4 TooLittleTime 0
scalar RSUExampleScenario.node[11].nic.mac1609_4 TimesIntoBackoff 19
scalar RSUExampleScenario.node[11].nic.mac1609_4 SlotsBackoff 29
scalar RSUExampleScenario.node[11].nic.mac1609_4 NumInternalContention 0
scalar RSUExampleScenario.node[11].nic.mac1609_4 totalBusyTime 0.102563
scalar RSUExampleScenario.node[11].nic.mac1609_4 retriesExceeded:count 0
attr source org_car2x_veins_modules_mac_sigRetriesExceeded
scalar RSUExampleScenario.node[11].nic.mac1609_4 sentAcks:count 0
attr source org_car2x_veins_modules_mac_sigSentAck
scalar RSUExampleScenario.node[11].nic.mac1609_4 sentPackets:count 19
attr source org_car2x_veins_modules_mac_sigSentPacket
scalar RSUExampleScenario.node[11].nic.mac1609_4 collisions:count 0
attr source org_car2x_veins_modules_mac_sigCollision
scalar RSUExampleScenario.node[11].nic.mac1609_4 channelBusy:timeavg 0.0053980526315791
attr source org_car2x_veins_modules_mac_sigChannelBusy
scalar RSUExampleScenario.node[11].veinsmobility startTime 1
scalar RSUExampleScenario.node[11].veinsmobility totalTime 19
scalar RSUExampleScenario.node[11].veinsmobility stopTime 20
scalar RSUExampleScenario.node[11].veinsmobility minSpeed 6.0350476438608
scalar RSUExampleScenario.node[11].veinsmobility maxSpeed 13.121375159509
scalar RSUExampleScenario.node[11].veinsmobility totalDistance 241.72918995179
scalar RSUExampleScenario.node[11].veinsmobility totalCO2Emission 32.944601179307
scalar RSUExampleScenario.node[12].appl generatedWSMs 0
scalar RSUExampleScenario.node[12].appl receivedWSMs 0
scalar RSUExampleScenario.node[12].appl generatedBSMs 19
scalar RSUExampleScenario.node[12].appl receivedBSMs 985
scalar RSUExampleScenario.node[12].appl generatedWSAs 0
scalar RSUExampleScenario.node[12].appl receivedWSAs 0
scalar RSUExampleScenario.node[12].nic.phy80211p busyTime 0.0062892631578949
scalar RSUExampleScenario.node[12].nic.mac1609_4 ReceivedUnicastPackets 0
scalar RSUExampleScenario.node[12].nic.mac1609_4 ReceivedBroadcasts 985
scalar RSUExampleScenario.node[12].nic.mac1609_4 SentPackets 19
scalar RSUExampleScenario.node[12].nic.mac1609_4 SentAcknowledgements 0
scalar RSUExampleScenario.node[12].nic.mac1609_4 RetriesExceeded 0
scalar RSUExampleScenario.node[12].nic.mac1609_4 SNIRLostPackets 164
scalar RSUExampleScenario.node[12].nic.mac1609_4 RXTXLostPackets 0
scalar RSUExampleScenario.node[12].nic.mac1609_4 TotalLostPackets 164
scalar RSUExampleScenario.node[12].nic.mac1609_4 DroppedPacketsInMac 0
scalar RSUExampleScenario.node[12].nic.mac1609_4 TooLittleTime 0
scalar RSUExampleScenario.node[12].nic.mac1609_4 TimesIntoBackoff 19
scalar RSUExampleScenario.node[12].nic.mac1609_4 SlotsBackoff 30
scalar RSUExampleScenario.node[12].nic.mac1609_4 NumInternalContention 0
scalar RSUExampleScenario.node[12].nic.mac1609_4 totalBusyTime 0.117227
scalar RSUExampleScenario.node[12].nic.mac1609_4 retriesExceeded:count 0
attr source org_car2x_veins_modules_mac_sigRetriesExceeded
scalar RSUExampleScenario.node[12].nic.mac1609_4 sentAcks:count 0
attr source org_car2x_veins_modules_mac_sigSentAck
scalar RSUExampleScenario.node[12].nic.mac1609_4 sentPackets:count 19
attr source org_car2x_veins_modules_mac_sigSentPacket
scalar RSUExampleScenario.node[12].nic.mac1609_4 collisions:count 0
attr source org_car2x_veins_modules_mac_sigCollision
scalar RSUExampleScenario.node[12].nic.mac1609_4 channelBusy:timeavg 0.0061698421052633
attr source org_car2x_veins_modules_mac_sigChannelBusy
scalar RSUExampleScenario.node[12].veinsmobility startTime 1
scalar RSUExampleScenario.node[12].veinsmobility totalTime 19
scalar RSUExampleScenario.node[12].veinsmobility stopTime 20
scalar RSUExampleScenario.node[12].veinsmobility minSpeed 4.8184555137393
scalar RSUExampleScenario.node[12].veinsmobility maxSpeed 12.913754891628
scalar RSUExampleScenario.node[12].veinsmobility totalDistance 197.60575317957
scalar RSUExampleScenario.node[12].veinsmobility totalCO2Emission 62.324694420218
scalar RSUExampleScenario.node[13].appl generatedWSMs 0
scalar RSUExampleScenario.node[13].appl receivedWSMs 0
scalar RSUExampleScenario.node[13].appl generatedBSMs 19
scalar RSUExampleScenario.node[13].appl receivedBSMs 888
scalar RSUExampleScenario.node[13].appl generatedWSAs 0
scalar RSUExampleScenario.node[13].appl receivedWSAs 0
scalar RSUExampleScenario.node[13].nic.phy80211p busyTime 0.0054517894736844
scalar RSUExampleScenario.node[13].nic.mac1609_4 ReceivedUnicastPackets 0
scalar RSUExampleScenario.node[13].nic.mac1609_4 ReceivedBroadcasts 888
scalar RSUExampleScenario.node[13].nic.mac1609_4 SentPackets 19
scalar RSUExampleScenario.node[13].nic.mac1609_4 SentAcknowledgements 0
scalar RSUExampleScenario.node[13].nic.mac1609_4 RetriesExceeded 0
scalar RSUExampleScenario.node[13].nic.mac1609_4 SNIRLostPackets 108
scalar RSUExampleScenario.node[13].nic.mac1609_4 RXTXLostPackets 0
scalar RSUExampleScenario.node[13].nic.mac1609_4 TotalLostPackets 108
scalar RSUExampleScenario.node[13].nic.mac1609_4 DroppedPacketsInMac 0
scalar RSUExampleScenario.node[13].nic.mac1609_4 TooLittleTime 0
scalar RSUExampleScenario.node[13].nic.mac1609_4 TimesIntoBackoff 19
scalar RSUExampleScenario.node[13].nic.mac1609_4 SlotsBackoff 23
scalar RSUExampleScenario.node[13].nic.mac1609_4 NumInternalContention 0
scalar RSUExampleScenario.node[13].nic.mac1609_4 totalBusyTime 0.103499
scalar RSUExampleScenario.node[13].nic.mac1609_4 retriesExceeded:count 0
attr source org_car2x_veins_modules_mac_sigRetriesExceeded
scalar RSUExampleScenario.node[13].nic.mac1609_4 sentAcks:count 0
attr source org_car2x_veins_modules_mac_sigSentAck
scalar RSUExampleScenario.node[13].nic.mac1609_4 sentPackets:count 19
attr source org_car2x_veins_modules_mac_sigSentPacket
scalar RSUExampleScenario.node[13].nic.mac1609_4 collisions:count 0
attr source org_car2x_veins_modules_mac_sigCollision
scalar RSUExampleScenario.node[13].nic.mac1609_4 channelBusy:timeavg 0.0054473157894738
attr source org_car2x_veins_modules_mac_sigChannelBusy
scalar RSUExampleScenario.node[13].veinsmobility startTime 1
scalar RSUExampleScenario.node[13].veinsmobility totalTime 19
scalar RSUExampleScenario.node[13].veinsmobility stopTime 20
scalar RSUExampleScenario.node[13].veinsmobility minSpeed 6.9439747358431
scalar RSUExampleScenario.node[13].veinsmobility maxSpeed 13.684560351132
scalar RSUExampleScenario.node[13].veinsmobility totalDistance 209.1182072883
scalar RSUExampleScenario.node[13].veinsmobility totalCO2Emission 63.634839221449
scalar RSUExampleScenario.node[14].appl generatedWSMs 0
scalar RSUExampleScenario.node[14].appl receivedWSMs 0
scalar RSUExampleScenario.node[14].appl generatedBSMs 19
scalar RSUExampleScenario.node[14].appl receivedBSMs 608
scalar RSUExampleScenario.node[14].appl generatedWSAs 0
scalar RSUExampleScenario.node[14].appl receivedWSAs 0
scalar RSUExampleScenario.node[14].nic.phy80211p busyTime 0.0037658947368421
scalar RSUExampleScenario.node[14].nic.mac1609_4 ReceivedUnicastPackets 0
scalar RSUExampleScenario.node[14].nic.mac1609_4 ReceivedBroadcasts 608
scalar RSUExampleScenario.node[14].nic.mac1609_4 SentPackets 19
scalar RSUExampleScenario.node[14].nic.mac1609_4 SentAcknowledgements 0
scalar RSUExampleScenario.node[14].nic.mac1609_4 RetriesExceeded 0
scalar RSUExampleScenario.node[14].nic.mac1609_4 SNIRLostPackets 80
scalar RSUExampleScenario.node[14].nic.mac1609_4 RXTXLostPackets 0
scalar RSUExampleScenario.node[14].nic.mac1609_4 TotalLostPackets 80
scalar RSUExampleScenario.node[14].nic.mac1609_4 DroppedPacketsInMac 0
scalar RSUExampleScenario.node[14].nic.mac1609_4 TooLittleTime 0
scalar RSUExampleScenario.node[14].nic.mac1609_4 TimesIntoBackoff 19
scalar RSUExampleScenario.node[14].nic.mac1609_4 SlotsBackoff 14
scalar RSUExampleScenario.node[14].nic.mac1609_4 NumInternalContention 0
scalar RSUExampleScenario.node[14].nic.mac1609_4 totalBusyTime 0.072195
scalar RSUExampleScenario.node[14].nic.mac1609_4 retriesExceeded:count 0
attr source org_car2x_veins_modules_mac_sigRetriesExceeded
scalar RSUExampleScenario.node[14].nic.mac1609_4 sentAcks:count 0
attr source org_car2x_veins_modules_mac_sigSentAck
scalar RSUExampleScenario.node[14].nic.mac1609_4 sentPackets:count 19
attr source org_car2x_veins_modules_mac_sigSentPacket
scalar RSUExampleScenario.node[14].nic.mac1609_4 collisions:count 0
attr source org_car2x_veins_modules_mac_sigCollision
scalar RSUExampleScenario.node[14].nic.mac1609_4 channelBusy:timeavg 0.0037997368421053
attr source org_car2x_veins_modules_mac_sigChannelBusy
scalar RSUExampleScenario.node[14].veinsmobility startTime 1
scalar RSUExampleScenario.node[14].veinsmobility totalTime 19
scalar RSUExampleScenario.node[14].veinsmobility stopTime 20
scalar RSUExampleScenario.node[14].veinsmobility minSpeed 6.6365266650772
scalar RSUExampleScenario.node[14].veinsmobility maxSpeed 14.402352363672
scalar RSUExampleScenario.node[14].veinsmobility totalDistance 212.17964955399
scalar RSUExampleScenario.node[14].veinsmobility totalCO2Emission 55.583367099571
scalar RSUExampleScenario.node[15].appl generatedWSMs 0
scalar RSUExampleScenario.node[15].appl receivedWSMs 0
scalar RSUExampleScenario.node[15].appl generatedBSMs 19
scalar RSUExampleScenario.node[15].appl receivedBSMs 826
scalar RSUExampleScenario.node[15].appl generatedWSAs 0
scalar RSUExampleScenario.node[15].appl receivedWSAs 0
scalar RSUExampleScenario.node[15].nic.phy80211p busyTime 0.0049755789473685
scalar RSUExampleScenario.node[15].nic.mac1609_4 ReceivedUnicastPackets 0
scalar RSUExampleScenario.node[15].nic.mac1609_4 ReceivedBroadcasts 826
scalar RSUExampleScenario.node[15].nic.mac1609_4 SentPackets 19
scalar RSUExampleScenario.node[15].nic.mac1609_4 SentAcknowledgements 0
scalar RSUExampleScenario.node[15].nic.mac1609_4 RetriesExceeded 0
scalar RSUExampleScenario.node[15].nic.mac1609_4 SNIRLostPackets 83
scalar RSUExampleScenario.node[15].nic.mac1609_4 RXTXLostPackets 0
scalar RSUExampleScenario.node[15].nic.mac1609_4 TotalLostPackets 83
scalar RSUExampleScenario.node[15].nic.mac1609_4 DroppedPacketsInMac 0
scalar RSUExampleScenario.node[15].nic.mac1609_4 TooLittleTime 0
scalar RSUExampleScenario.node[15].nic.mac1609_4 TimesIntoBackoff 19
scalar RSUExampleScenario.node[15].nic.mac1609_4 SlotsBackoff 24
scalar RSUExampleScenario.node[15].nic.mac1609_4 NumInternalContention 0
scalar RSUExampleScenario.node[15].nic.mac1609_4 totalBusyTime 0.096531
scalar RSUExampleScenario.node[15].nic.mac1609_4 retriesExceeded:count 0
attr source org_car2x_veins_modules_mac_sigRetriesExceeded
scalar RSUExampleScenario.node[15].nic.mac1609_4 sentAcks:count 0
attr source org_car2x_veins_modules_mac_sigSentAck
scalar RSUExampleScenario.node[15].nic.mac1609_4 sentPackets:count 19
attr source org_car2x_veins_modules_mac_sigSentPacket
scalar RSUExampleScenario.node[15].nic.mac1609_4 collisions:count 0
attr source org_car2x_veins_modules_mac_sigCollision
scalar RSUExampleScenario.node[15].nic.mac1609_4 channelBusy:timeavg 0.0050805789473685
attr source org_car2x_veins_modules_mac_sigChannelBusy
scalar RSUExampleScenario.node[15].veinsmobility startTime 1
scalar RSUExampleScenario.node[15].veinsmobility totalTime 19
scalar RSUExampleScenario.node[15].veinsmobility stopTime 20
scalar RSUExampleScenario.node[15].veinsmobility minSpeed 2.8366542931586
scalar RSUExampleScenario.node[15].veinsmobility maxSpeed 14.428397795042
scalar RSUExampleScenario.node[15].veinsmobility totalDistance 178.34458336414
scalar RSUExampleScenario.node[15].veinsmobility totalCO2Emission 54.383352477007
scalar RSUExampleScenario.node[16].appl generatedWSMs 0
scalar RSUExampleScenario.node[16].appl receivedWSMs 0
scalar RSUExampleScenario.node[16].appl generatedBSMs 19
scalar RSUExampleScenario.node[16].appl receivedBSMs 1127
scalar RSUExampleScenario.node[16].appl generatedWSAs 0
scalar RSUExampleScenario.node[16].appl receivedWSAs 0
scalar RSUExampleScenario.node[16].nic.phy80211p busyTime 0.0070446315789476
scalar RSUExampleScenario.node[16].nic.mac1609_4 ReceivedUnicastPackets 0
scalar RSUExampleScenario.node[16].nic.mac1609_4 ReceivedBroadcasts 1127
scalar RSUExampleScenario.node[16].nic.mac1609_4 SentPackets 19
scalar RSUExampleScenario.node[16].nic.mac1609_4 SentAcknowledgements 0
scalar RSUExampleScenario.node[16].nic.mac1609_4 RetriesExceeded 0
scalar RSUExampleScenario.node[16].nic.mac1609_4 SNIRLostPackets 160
scalar RSUExampleScenario.node[16].nic.mac1609_4 RXTXLostPackets 0
scalar RSUExampleScenario.node[16].nic.mac1609_4 TotalLostPackets 160
scalar RSUExampleScenario.node[16].nic.mac1609_4 DroppedPacketsInMac 0
scalar RSUExampleScenario.node[16].nic.mac1609_4 TooLittleTime 0
scalar RSUExampleScenario.node[16].nic.mac1609_4 TimesIntoBackoff 19
scalar RSUExampleScenario.node[16].nic.mac1609_4 SlotsBackoff 19
scalar RSUExampleScenario.node[16].nic.mac1609_4 NumInternalContention 0
scalar RSUExampleScenario.node[16].nic.mac1609_4 totalBusyTime 0.132515
scalar RSUExampleScenario.node[16].nic.mac1609_4 retriesExceeded:count 0
attr source org_car2x_veins_modules_mac_sigRetriesExceeded
scalar RSUExampleScenario.node[16].nic.mac1609_4 sentAcks:count 0
attr source org_car2x_veins_modules_mac_sigSentAck
scalar RSUExampleScenario.node[16].nic.mac1609_4 sentPackets:count 19
attr source org_car2x_veins_modules_mac_sigSentPacket
scalar RSUExampleScenario.node[16].nic.mac1609_4 collisions:count 0
attr source org_car2x_veins_modules_mac_sigCollision
scalar RSUExampleScenario.node[16].nic.mac1609_4 channelBusy:timeavg 0.0069744736842107
attr source org_car2x_veins_modules_mac_sigChannelBusy
scalar RSUExampleScenario.node[16].veinsmobility startTime 1
scalar RSUExampleScenario.node[16].veinsmobility totalTime 19
scalar RSUExampleScenario.node[16].veinsmobility stopTime 20
scalar RSUExampleScenario.node[16].veinsmobility minSpeed 0
scalar RSUExampleScenario.node[16].veinsmobility maxSpeed 14.638421877868
scalar RSUExampleScenario.node[16].veinsmobility totalDistance 183.02820337829
scalar RSUExampleScenario.node[16].veinsmobility totalCO2Emission 69.22481975919
scalar RSUExampleScenario.node[17].appl generatedWSMs 0
scalar RSUExampleScenario.node[17].appl receivedWSMs 0
scalar RSUExampleScenario.node[17].appl generatedBSMs 19
scalar RSUExampleScenario.node[17].appl receivedBSMs 468
scalar RSUExampleScenario.node[17].appl generatedWSAs 0
scalar RSUExampleScenario.node[17].appl receivedWSAs 0
scalar RSUExampleScenario.node[17].nic.phy80211p busyTime 0.0027587368421053
scalar RSUExampleScenario.node[17].nic.mac1609_4 ReceivedUnicastPackets 0
scalar RSUExampleScenario.node[17].nic.mac1609_4 ReceivedBroadcasts 468
scalar RSUExampleScenario.node[17].nic.mac1609_4 SentPackets 19
scalar RSUExampleScenario.node[17].nic.mac1609_4 SentAcknowledgements 0
scalar RSUExampleScenario.node[17].nic.mac1609_4 RetriesExceeded 0
scalar RSUExampleScenario.node[17].nic.mac1609_4 SNIRLostPackets 36
scalar RSUExampleScenario.node[17].nic.mac1609_4 RXTXLostPackets 0
scalar RSUExampleScenario.node[17].nic.mac1609_4 TotalLostPackets 36
scalar RSUExampleScenario.node[17].nic.mac1609_4 DroppedPacketsInMac 0
scalar RSUExampleScenario.node[17].nic.mac1609_4 TooLittleTime 0
scalar RSUExampleScenario.node[17].nic.mac1609_4 TimesIntoBackoff 19
scalar RSUExampleScenario.node[17].nic.mac1609_4 SlotsBackoff 18
scalar RSUExampleScenario.node[17].nic.mac1609_4 NumInternalContention 0
scalar RSUExampleScenario.node[17].nic.mac1609_4 totalBusyTime 0.054411
scalar RSUExampleScenario.node[17].nic.mac1609_4 retriesExceeded:count 0
attr source org_car2x_veins_modules_mac_sigRetriesExceeded
scalar RSUExampleScenario.node[17].nic.mac1609_4 sentAcks:count 0
attr source org_car2x_veins_modules_mac_sigSentAck
scalar RSUExampleScenario.node[17].nic.mac1609_4 sentPackets:count 19
attr source org_car2x_veins_modules_mac_sigSentPacket
scalar RSUExampleScenario.node[17].nic.mac1609_4 collisions:count 0
attr source org_car2x_veins_modules_mac_sigCollision
scalar RSUExampleScenario.node[17].nic.mac1609_4 channelBusy:timeavg 0.0028637368421053
attr source org_car2x_veins_modules_mac_sigChannelBusy
scalar RSUExampleScenario.node[17].veinsmobility startTime 1
scalar RSUExampleScenario.node[17].veinsmobility totalTime 19
scalar RSUExampleScenario.node[17].veinsmobility stopTime 20
scalar RSUExampleScenario.node[17].veinsmobility minSpeed 4.6975518416515
scalar RSUExampleScenario.node[17].veinsmobility maxSpeed 10.057768963973
scalar RSUExampleScenario.node[17].veinsmobility totalDistance 167.04203581254
scalar RSUExampleScenario.node[17].veinsmobility totalCO2Emission 38.760063538826
scalar RSUExampleScenario.node[18].appl generatedWSMs 0
scalar RSUExampleScenario.node[18].appl receivedWSMs 0
scalar RSUExampleScenario.node[18].appl generatedBSMs 19
scalar RSUExampleScenario.node[18].appl receivedBSMs 547
scalar RSUExampleScenario.node[18].appl generatedWSAs 0
scalar RSUExampleScenario.node[18].appl receivedWSAs 0
scalar RSUExampleScenario.node[18].nic.phy80211p busyTime 0.0032677894736842
scalar RSUExampleScenario.node[18].nic.mac1609_4 ReceivedUnicastPackets 0
scalar RSUExampleScenario.node[18].nic.mac1609_4 ReceivedBroadcasts 547
scalar RSUExampleScenario.node[18].nic.mac1609_4 SentPackets 19
scalar RSUExampleScenario.node[18].nic.mac1609_4 SentAcknowledgements 0
scalar RSUExampleScenario.node[18].nic.mac1609_4 RetriesExceeded 0
scalar RSUExampleScenario.node[18].nic.mac1609_4 SNIRLostPackets 50
scalar RSUExampleScenario.node[18].nic.mac1609_4 RXTXLostPackets 0
scalar RSUExampleScenario.node[18].nic.mac1609_4 TotalLostPackets 50
scalar RSUExampleScenario.node[18].nic.mac1609_4 DroppedPacketsInMac 0
scalar RSUExampleScenario.node[18].nic.mac1609_4 TooLittleTime 0
scalar RSUExampleScenario.node[18].nic.mac1609_4 TimesIntoBackoff 19
scalar RSUExampleScenario.node[18].nic.mac1609_4 SlotsBackoff 26
scalar RSUExampleScenario.node[18].nic.mac1609_4 NumInternalContention 0
scalar RSUExampleScenario.node[18].nic.mac1609_4 totalBusyTime 0.063563
scalar RSUExampleScenario.node[18].nic.mac1609_4 retriesExceeded:count 0
attr source org_car2x_veins_modules_mac_sigRetriesExceeded
scalar RSUExampleScenario.node[18].nic.mac1609_4 sentAcks:count 0
attr source org_car2x_veins_modules_mac_sigSentAck
scalar RSUExampleScenario.node[18].nic.mac1609_4 sentPackets:count 19
attr source org_car2x_veins_modules_mac_sigSentPacket
scalar RSUExampleScenario.node[18].nic.mac1609_4 collisions:count 0
attr source org_car2x_veins_modules_mac_sigCollision
scalar RSUExampleScenario.node[18].nic.mac1609_4 channelBusy:timeavg 0.0033454210526316
attr source org_car2x_veins_modules_mac_sigChannelBusy
scalar RSUExampleScenario.node[18].veinsmobility startTime 1
scalar RSUExampleScenario.node[18].veinsmobility totalTime 19
scalar RSUExampleScenario.node[18].veinsmobility stopTime 20
scalar RSUExampleScenario.node[18].veinsmobility minSpeed 6.5158333476494
scalar RSUExampleScenario.node[18].veinsmobility maxSpeed 15.376744117339
scalar RSUExampleScenario.node[18].veinsmobility totalDistance 224.33403499582
scalar RSUExampleScenario.node[18].veinsmobility totalCO2Emission 77.805176539338
scalar RSUExampleScenario.node[19].appl generatedWSMs 0
scalar RSUExampleScenario.node[19].appl receivedWSMs 0
scalar RSUExampleScenario.node[19].appl generatedBSMs 19
scalar RSUExampleScenario.node[19].appl receivedBSMs 921
scalar RSUExampleScenario.node[19].appl generatedWSAs 0
scalar RSUExampleScenario.node[19].appl receivedWSAs 0
scalar RSUExampleScenario.node[19].nic.phy80211p busyTime 0.0056597894736844
scalar RSUExampleScenario.node[19].nic.mac1609_4 ReceivedUnicastPackets 0
scalar RSUExampleScenario.node[19].nic.mac1609_4 ReceivedBroadcasts 921
scalar RSUExampleScenario.node[19].nic.mac1609_4 SentPackets 19
scalar RSUExampleScenario.node[19].nic.mac1609_4 SentAcknowledgements 0
scalar RSUExampleScenario.node[19].nic.mac1609_4 RetriesExceeded 0
scalar RSUExampleScenario.node[19].nic.mac1609_4 SNIRLostPackets 113
scalar RSUExampleScenario.node[19].nic.mac1609_4 RXTXLostPackets 0
scalar RSUExampleScenario.node[19].nic.mac1609_4 TotalLostPackets 113
scalar RSUExampleScenario.node[19].nic.mac1609_4 DroppedPacketsInMac 0
scalar RSUExampleScenario.node[19].nic.mac1609_4 TooLittleTime 0
scalar RSUExampleScenario.node[19].nic.mac1609_4 TimesIntoBackoff 19
scalar RSUExampleScenario.node[19].nic.mac1609_4 SlotsBackoff 21
scalar RSUExampleScenario.node[19].nic.mac1609_4 NumInternalContention 0
scalar RSUExampleScenario.node[19].nic.mac1609_4 totalBusyTime 0.107763
scalar RSUExampleScenario.node[19].nic.mac1609_4 retriesExceeded:count 0
attr source org_car2x_veins_modules_mac_sigRetriesExceeded
scalar RSUExampleScenario.node[19].nic.mac1609_4 sentAcks:count 0
attr source org_car2x_veins_modules_mac_sigSentAck
scalar RSUExampleScenario.node[19].nic.mac1609_4 sentPackets:count 19
attr source org_car2x_veins_modules_mac_sigSentPacket
scalar RSUExampleScenario.node[19].nic.mac1609_4 collisions:count 0
attr source org_car2x_veins_modules_mac_sigCollision
scalar RSUExampleScenario.node[19].nic.mac1609_4 channelBusy:timeavg 0.0056717368421054
attr source org_car2x_veins_modules_mac_sigChannelBusy
scalar RSUExampleScenario.node[19].veinsmobility startTime 1
scalar RSUExampleScenario.node[19].veinsmobility totalTime 19
scalar RSUExampleScenario.node[19].veinsmobility stopTime 20
scalar RSUExampleScenario.node[19].veinsmobility minSpeed 6.1082382442162
scalar RSUExampleScenario.node[19].veinsmobility maxSpeed 13.024708282871
scalar RSUExampleScenario.node[19].veinsmobility totalDistance 202.23297067827
scalar RSUExampleScenario.node[19].veinsmobility totalCO2Emission 63.008027346436
scalar RSUExampleScenario.node[20].appl generatedWSMs 0
scalar RSUExampleScenario.node[20].appl receivedWSMs 0
scalar RSUExampleScenario.node[20].appl generatedBSMs 19
scalar RSUExampleScenario.node[20].appl receivedBSMs 1069
scalar RSUExampleScenario.node[20].appl generatedWSAs 0
scalar RSUExampleScenario.node[20].appl receivedWSAs 0
scalar RSUExampleScenario.node[20].nic.phy80211p busyTime 0.0068092631578949
scalar RSUExampleScenario.node[20].nic.mac1609_4 ReceivedUnicastPackets 0
scalar RSUExampleScenario.node[20].nic.mac1609_4 ReceivedBroadcasts 1069
scalar RSUExampleScenario.node[20].nic.mac1609_4 SentPackets 19
scalar RSUExampleScenario.node[20].nic.mac1609_4 SentAcknowledgements 0
scalar RSUExampleScenario.node[20].nic.mac1609_4 RetriesExceeded 0
scalar RSUExampleScenario.node[20].nic.mac1609_4 SNIRLostPackets 175
scalar RSUExampleScenario.node[20].nic.mac1609_4 RXTXLostPackets 0
scalar RSUExampleScenario.node[20].nic.mac1609_4 TotalLostPackets 175
scalar RSUExampleScenario.node[20].nic.mac1609_4 DroppedPacketsInMac 0
scalar RSUExampleScenario.node[20].nic.mac1609_4 TooLittleTime 0
scalar RSUExampleScenario.node[20].nic.mac1609_4 TimesIntoBackoff 19
scalar RSUExampleScenario.node[20].nic.mac1609_4 SlotsBackoff 30
scalar RSUExampleScenario.node[20].nic.mac1609_4 NumInternalContention 0
scalar RSUExampleScenario.node[20].nic.mac1609_4 totalBusyTime 0.128771
scalar RSUExampleScenario.node[20].nic.mac1609_4 retriesExceeded:count 0
attr source org_car2x_veins_modules_mac_sigRetriesExceeded
scalar RSUExampleScenario.node[20].nic.mac1609_4 sentAcks:count 0
attr source org_car2x_veins_modules_mac_sigSentAck
scalar RSUExampleScenario.node[20].nic.mac1609_4 sentPackets:count 19
attr source org_car2x_veins_modules_mac_sigSentPacket
scalar RSUExampleScenario.node[20].nic.mac1609_4 collisions:count 0
attr source org_car2x_veins_modules_mac_sigCollision
scalar RSUExampleScenario.node[20].nic.mac1609_4 channelBusy:timeavg 0.0067774210526318
attr source org_car2x_veins_modules_mac_sigChannelBusy
scalar RSUExampleScenario.node[20].veinsmobility startTime 1
scalar RSUExampleScenario.node[20].veinsmobility totalTime 19
scalar RSUExampleScenario.node[20].veinsmobility stopTime 20
scalar RSUExampleScenario.node[20].veinsmobility minSpeed 0
scalar RSUExampleScenario.node[20].veinsmobility maxSpeed 15.684804551726
scalar RSUExampleScenario.node[20].veinsmobility totalDistance 134.33821213019
scalar RSUExampleScenario.node[20].veinsmobility totalCO2Emission 68.569395134421
scalar RSUExampleScenario.node[21].appl generatedWSMs 0
scalar RSUExampleScenario.node[21].appl receivedWSMs 0
scalar RSUExampleScenario.node[21].appl generatedBSMs 19
scalar RSUExampleScenario.node[21].appl receivedBSMs 761
scalar RSUExampleScenario.node[21].appl generatedWSAs 0
scalar RSUExampleScenario.node[21].appl receivedWSAs 0
scalar RSUExampleScenario.node[21].nic.phy80211p busyTime 0.0044829473684211
scalar RSUExampleScenario.node[21].nic.mac1609_4 ReceivedUnicastPackets 0
scalar RSUExampleScenario.node[21].nic.mac1609_4 ReceivedBroadcasts 761
scalar RSUExampleScenario.node[21].nic.mac1609_4 SentPackets 19
scalar RSUExampleScenario.node[21].nic.mac1609_4 SentAcknowledgements 0
scalar RSUExampleScenario.node[21].nic.mac1609_4 RetriesExceeded 0
scalar RSUExampleScenario.node[21].nic.mac1609_4 SNIRLostPackets 58
scalar RSUExampleScenario.node[21].nic.mac1609_4 RXTXLostPackets 0
scalar RSUExampleScenario.node[21].nic.mac1609_4 TotalLostPackets 58
scalar RSUExampleScenario.node[21].nic.mac1609_4 DroppedPacketsInMac 0
scalar RSUExampleScenario.node[21].nic.mac1609_4 TooLittleTime 0
scalar RSUExampleScenario.node[21].nic.mac1609_4 TimesIntoBackoff 19
scalar RSUExampleScenario.node[21].nic.mac1609_4 SlotsBackoff 26
scalar RSUExampleScenario.node[21].nic.mac1609_4 NumInternalContention 0
scalar RSUExampleScenario.node[21].nic.mac1609_4 totalBusyTime 0.087171
scalar RSUExampleScenario.node[21].nic.mac1609_4 retriesExceeded:count 0
attr source org_car2x_veins_modules_mac_sigRetriesExceeded
scalar RSUExampleScenario.node[21].nic.mac1609_4 sentAcks:count 0
attr source org_car2x_veins_modules_mac_sigSentAck
scalar RSUExampleScenario.node[21].nic.mac1609_4 sentPackets:count 19
attr source org_car2x_veins_modules_mac_sigSentPacket
scalar RSUExampleScenario.node[21].nic.mac1609_4 collisions:count 0
attr source org_car2x_veins_modules_mac_sigCollision
scalar RSUExampleScenario.node[21].nic.mac1609_4 channelBusy:timeavg 0.0045879473684211
attr source org_car2x_veins_modules_mac_sigChannelBusy
scalar RSUExampleScenario.node[21].veinsmobility startTime 1
scalar RSUExampleScenario.node[21].veinsmobility totalTime 19
scalar RSUExampleScenario.node[21].veinsmobility stopTime 20
scalar RSUExampleScenario.node[21].veinsmobility minSpeed 5.673482565217
scalar RSUExampleScenario.node[21].veinsmobility maxSpeed 12.268410356396
scalar RSUExampleScenario.node[21].veinsmobility totalDistance 214.82082602084
scalar RSUExampleScenario.node[21].veinsmobility totalCO2Emission 31.051079028781
scalar RSUExampleScenario.node[22].appl generatedWSMs 0
scalar RSUExampleScenario.node[22].appl receivedWSMs 0
scalar RSUExampleScenario.node[22].appl generatedBSMs 19
scalar RSUExampleScenario.node[22].appl receivedBSMs 784
scalar RSUExampleScenario.node[22].appl generatedWSAs 0
scalar RSUExampleScenario.node[22].appl receivedWSAs 0
scalar RSUExampleScenario.node[22].nic.phy80211p busyTime 0.0048004210526317
scalar RSUExampleScenario.node[22].nic.mac1609_4 ReceivedUnicastPackets 0
scalar RSUExampleScenario.node[22].nic.mac1609_4 ReceivedBroadcasts 784
scalar RSUExampleScenario.node[22].nic.mac1609_4 SentPackets 19
scalar RSUExampleScenario.node[22].nic.mac1609_4 SentAcknowledgements 0
scalar RSUExampleScenario.node[22].nic.mac1609_4 RetriesExceeded 0
scalar RSUExampleScenario.node[22].nic.mac1609_4 SNIRLostPackets 93
scalar RSUExampleScenario.node[22].nic.mac1609_4 RXTXLostPackets 0
scalar RSUExampleScenario.node[22].nic.mac1609_4 TotalLostPackets 93
scalar RSUExampleScenario.node[22].nic.mac1609_4 DroppedPacketsInMac 0
scalar RSUExampleScenario.node[22].nic.mac1609_4 TooLittleTime 0
scalar RSUExampleScenario.node[22].nic.mac1609_4 TimesIntoBackoff 19
scalar RSUExampleScenario.node[22].nic.mac1609_4 SlotsBackoff 21
scalar RSUExampleScenario.node[22].nic.mac1609_4 NumInternalContention 0
scalar RSUExampleScenario.node[22].nic.mac1609_4 totalBusyTime 0.093203
scalar RSUExampleScenario.node[22].nic.mac1609_4 retriesExceeded:count 0
attr source org_car2x_veins_modules_mac_sigRetriesExceeded
scalar RSUExampleScenario.node[22].nic.mac1609_4 sentAcks:count 0
attr source org_car2x_veins_modules_mac_sigSentAck
scalar RSUExampleScenario.node[22].nic.mac1609_4 sentPackets:count 19
attr source org_car2x_veins_modules_mac_sigSentPacket
scalar RSUExampleScenario.node[22].nic.mac1609_4 collisions:count 0
attr source org_car2x_veins_modules_mac_sigCollision
scalar RSUExampleScenario.node[22].nic.mac1609_4 channelBusy:timeavg 0.0049054210526317
attr source org_car2x_veins_modules_mac_sigChannelBusy
scalar RSUExampleScenario.node[22].veinsmobility startTime 1
scalar RSUExampleScenario.node[22].veinsmobility totalTime 19
scalar RSUExampleScenario.node[22].veinsmobility stopTime 20
scalar RSUExampleScenario.node[22].veinsmobility minSpeed 6.8898386972742
scalar RSUExampleScenario.node[22].veinsmobility maxSpeed 13.949057870528
scalar RSUExampleScenario.node[22].veinsmobility totalDistance 226.31093508005
scalar RSUExampleScenario.node[22].veinsmobility totalCO2Emission 49.150426535385
scalar RSUExampleScenario.node[23].appl generatedWSMs 0
scalar RSUExampleScenario.node[23].appl receivedWSMs 0
scalar RSUExampleScenario.node[23].appl generatedBSMs 19
scalar RSUExampleScenario.node[23].appl receivedBSMs 874
scalar RSUExampleScenario.node[23].appl generatedWSAs 0
scalar RSUExampleScenario.node[23].appl receivedWSAs 0
scalar RSUExampleScenario.node[23].nic.phy80211p busyTime 0.0052492631578949
scalar RSUExampleScenario.node[23].nic.mac1609_4 ReceivedUnicastPackets 0
scalar RSUExampleScenario.node[23].nic.mac1609_4 ReceivedBroadcasts 874
scalar RSUExampleScenario.node[23].nic.mac1609_4 SentPackets 19
scalar RSUExampleScenario.node[23].nic.mac1609_4 SentAcknowledgements 0
scalar RSUExampleScenario.node[23].nic.mac1609_4 RetriesExceeded 0
scalar RSUExampleScenario.node[23].nic.mac1609_4 SNIRLostPackets 85
scalar RSUExampleScenario.node[23].nic.mac1609_4 RXTXLostPackets 0
scalar RSUExampleScenario.node[23].nic.mac1609_4 TotalLostPackets 85
scalar RSUExampleScenario.node[23].nic.mac1609_4 DroppedPacketsInMac 0
scalar RSUExampleScenario.node[23].nic.mac1609_4 TooLittleTime 0
scalar RSUExampleScenario.node[23].nic.mac1609_4 TimesIntoBackoff 19
scalar RSUExampleScenario.node[23].nic.mac1609_4 SlotsBackoff 28
scalar RSUExampleScenario.node[23].nic.mac1609_4 NumInternalContention 0
scalar RSUExampleScenario.node[23].nic.mac1609_4 totalBusyTime 0.100795
scalar RSUExampleScenario.node[23].nic.mac1609_4 retriesExceeded:count 0
attr source org_car2x_veins_modules_mac_sigRetriesExceeded
scalar RSUExampleScenario.node[23].nic.mac1609_4 sentAcks:count 0
attr source org_car2x_veins_modules_mac_sigSentAck
scalar RSUExampleScenario.node[23].nic.mac1609_4 sentPackets:count 19
attr source org_car2x_veins_modules_mac_sigSentPacket
scalar RSUExampleScenario.node[23].nic.mac1609_4 collisions:count 0
attr source org_car2x_veins_modules_mac_sigCollision
scalar RSUExampleScenario.node[23].nic.mac1609_4 channelBusy:timeavg 0.0053050000000001
attr source org_car2x_veins_modules_mac_sigChannelBusy
scalar RSUExampleScenario.node[23].veinsmobility startTime 1
scalar RSUExampleScenario.node[23].veinsmobility totalTime 19
scalar RSUExampleScenario.node[23].veinsmobility stopTime 20
scalar RSUExampleScenario.node[23].veinsmobility minSpeed 4.7810964131818
scalar RSUExampleScenario.node[23].veinsmobility maxSpeed 10.385824016931
scalar RSUExampleScenario.node[23].veinsmobility totalDistance 169.02229186805
scalar RSUExampleScenario.node[23].veinsmobility totalCO2Emission 43.741163316834
scalar RSUExampleScenario.node[24].appl generatedWSMs 0
scalar RSUExampleScenario.node[24].appl receivedWSMs 0
scalar RSUExampleScenario.node[24].appl generatedBSMs 19
scalar RSUExampleScenario.node[24].appl receivedBSMs 632
scalar RSUExampleScenario.node[24].appl generatedWSAs 0
scalar RSUExampleScenario.node[24].appl receivedWSAs 0
scalar RSUExampleScenario.node[24].nic.phy80211p busyTime 0.0036126315789474
scalar RSUExampleScenario.node[24].nic.mac1609_4 ReceivedUnicastPackets 0
scalar RSUExampleScenario.node[24].nic.mac1609_4 ReceivedBroadcasts 632
scalar RSUExampleScenario.node[24].nic.mac1609_4 SentPackets 19
scalar RSUExampleScenario.node[24].nic.mac1609_4 SentAcknowledgements 0
scalar RSUExampleScenario.node[24].nic.mac1609_4 RetriesExceeded 0
scalar RSUExampleScenario.node[24].nic.mac1609_4 SNIRLostPackets 28
scalar RSUExampleScenario.node[24].nic.mac1609_4 RXTXLostPackets 0
scalar RSUExampleScenario.node[24].nic.mac1609_4 TotalLostPackets 28
scalar RSUExampleScenario.node[24].nic.mac1609_4 DroppedPacketsInMac 0
scalar RSUExampleScenario.node[24].nic.mac1609_4 TooLittleTime 0
scalar RSUExampleScenario.node[24].nic.mac1609_4 TimesIntoBackoff 19
scalar RSUExampleScenario.node[24].nic.mac1609_4 SlotsBackoff 32
scalar RSUExampleScenario.node[24].nic.mac1609_4 NumInternalContention 0
scalar RSUExampleScenario.node[24].nic.mac1609_4 totalBusyTime 0.070635
scalar RSUExampleScenario.node[24].nic.mac1609_4 retriesExceeded:count 0
attr source org_car2x_veins_modules_mac_sigRetriesExceeded
scalar RSUExampleScenario.node[24].nic.mac1609_4 sentAcks:count 0
attr source org_car2x_veins_modules_mac_sigSentAck
scalar RSUExampleScenario.node[24].nic.mac1609_4 sentPackets:count 19
attr source org_car2x_veins_modules_mac_sigSentPacket
scalar RSUExampleScenario.node[24].nic.mac1609_4 collisions:count 0
attr source org_car2x_veins_modules_mac_sigCollision
scalar RSUExampleScenario.node[24].nic.mac1609_4 channelBusy:timeavg 0.0037176315789474
attr source org_car2x_veins_modules_mac_sigChannelBusy
scalar RSUExampleScenario.node[24].veinsmobility startTime 1
scalar RSUExampleScenario.node[24].veinsmobility totalTime 19
scalar RSUExampleScenario.node[24].veinsmobility stopTime 20
scalar RSUExampleScenario.node[24].veinsmobility minSpeed 5.4349552318015
scalar RSUExampleScenario.node[24].veinsmobility maxSpeed 13.029798768971
scalar RSUExampleScenario.node[24].veinsmobility totalDistance 190.68752365637
scalar RSUExampleScenario.node[24].veinsmobility totalCO2Emission 63.497552975893
scalar RSUExampleScenario.node[25].appl generatedWSMs 0
scalar RSUExampleScenario.node[25].appl receivedWSMs 0
scalar RSUExampleScenario.node[25].appl generatedBSMs 19
scalar RSUExampleScenario.node[25].appl receivedBSMs 882
scalar RSUExampleScenario.node[25].appl generatedWSAs 0
scalar RSUExampleScenario.node[25].appl receivedWSAs 0
scalar RSUExampleScenario.node[25].nic.phy80211p busyTime 0.0052054736842107
scalar RSUExampleScenario.node[25].nic.mac1609_4 ReceivedUnicastPackets 0
scalar RSUExampleScenario.node[25].nic.mac1609_4 ReceivedBroadcasts 882
scalar RSUExampleScenario.node[25].nic.mac1609_4 SentPackets 19
scalar RSUExampleScenario.node[25].nic.mac1609_4 SentAcknowledgements 0
scalar RSUExampleScenario.node[25].nic.mac1609_4 RetriesExceeded 0
scalar RSUExampleScenario.node[25].nic.mac1609_4 SNIRLostPackets 69
scalar RSUExampleScenario.node[25].nic.mac1609_4 RXTXLostPackets 0
scalar RSUExampleScenario.node[25].nic.mac1609_4 TotalLostPackets 69
scalar RSUExampleScenario.node[25].nic.mac1609_4 DroppedPacketsInMac 0
scalar RSUExampleScenario.node[25].nic.mac1609_4 TooLittleTime 0
scalar RSUExampleScenario.node[25].nic.mac1609_4 TimesIntoBackoff 19
scalar RSUExampleScenario.node[25].nic.mac1609_4 SlotsBackoff 22
scalar RSUExampleScenario.node[25].nic.mac1609_4 NumInternalContention 0
scalar RSUExampleScenario.node[25].nic.mac1609_4 totalBusyTime 0.100587
scalar RSUExampleScenario.node[25].nic.mac1609_4 retriesExceeded:count 0
attr source org_car2x_veins_modules_mac_sigRetriesExceeded
scalar RSUExampleScenario.node[25].nic.mac1609_4 sentAcks:count 0
attr source org_car2x_veins_modules_mac_sigSentAck
scalar RSUExampleScenario.node[25].nic.mac1609_4 sentPackets:count 19
attr source org_car2x_veins_modules_mac_sigSentPacket
scalar RSUExampleScenario.node[25].nic.mac1609_4 collisions:count 0
attr source org_car2x_veins_modules_mac_sigCollision
scalar RSUExampleScenario.node[25].nic.mac1609_4 channelBusy:timeavg 0.0052940526315791
attr source org_car2x_veins_modules_mac_sigChannelBusy
scalar RSUExampleScenario.node[25].veinsmobility startTime 1
scalar RSUExampleScenario.node[25].veinsmobility totalTime 19
scalar RSUExampleScenario.node[25].veinsmobility stopTime 20
scalar RSUExampleScenario.node[25].veinsmobility minSpeed 0
scalar RSUExampleScenario.node[25].veinsmobility maxSpeed 15.033559642004
scalar RSUExampleScenario.node[25].veinsmobility totalDistance 158.82017059091
scalar RSUExampleScenario.node[25].veinsmobility totalCO2Emission 62.907894733212
scalar RSUExampleScenario.node[26].appl generatedWSMs 0
scalar RSUExampleScenario.node[26].appl receivedWSMs 0
scalar RSUExampleScenario.node[26].appl generatedBSMs 19
scalar RSUExampleScenario.node[26].appl receivedBSMs 1136
scalar RSUExampleScenario.node[26].appl generatedWSAs 0
scalar RSUExampleScenario.node[26].appl receivedWSAs 0
scalar RSUExampleScenario.node[26].nic.phy80211p busyTime 0.0071103157894739
scalar RSUExampleScenario.node[26].nic.mac1609_4 ReceivedUnicastPackets 0
scalar RSUExampleScenario.node[26].nic.mac1609_4 ReceivedBroadcasts 1136
scalar RSUExampleScenario.node[26].nic.mac1609_4 SentPackets 19
scalar RSUExampleScenario.node[26].nic.mac1609_4 SentAcknowledgements 0
scalar RSUExampleScenario.node[26].nic.mac1609_4 RetriesExceeded 0
scalar RSUExampleScenario.node[26].nic.mac1609_4 SNIRLostPackets 163
scalar RSUExampleScenario.node[26].nic.mac1609_4 RXTXLostPackets 0
scalar RSUExampleScenario.node[26].nic.mac1609_4 TotalLostPackets 163
scalar RSUExampleScenario.node[26].nic.mac1609_4 DroppedPacketsInMac 0
scalar RSUExampleScenario.node[26].nic.mac1609_4 TooLittleTime 0
scalar RSUExampleScenario.node[26].nic.mac1609_4 TimesIntoBackoff 19
scalar RSUExampleScenario.node[26].nic.mac1609_4 SlotsBackoff 39
scalar RSUExampleScenario.node[26].nic.mac1609_4 NumInternalContention 0
scalar RSUExampleScenario.node[26].nic.mac1609_4 totalBusyTime 0.133347
scalar RSUExampleScenario.node[26].nic.mac1609_4 retriesExceeded:count 0
attr source org_car2x_veins_modules_mac_sigRetriesExceeded
scalar RSUExampleScenario.node[26].nic.mac1609_4 sentAcks:count 0
attr source org_car2x_veins_modules_mac_sigSentAck
scalar RSUExampleScenario.node[26].nic.mac1609_4 sentPackets:count 19
attr source org_car2x_veins_modules_mac_sigSentPacket
scalar RSUExampleScenario.node[26].nic.mac1609_4 collisions:count 0
attr source org_car2x_veins_modules_mac_sigCollision
scalar RSUExampleScenario.node[26].nic.mac1609_4 channelBusy:timeavg 0.0070182631578949
attr source org_car2x_veins_modules_mac_sigChannelBusy
scalar RSUExampleScenario.node[26].veinsmobility startTime 1
scalar RSUExampleScenario.node[26].veinsmobility totalTime 19
scalar RSUExampleScenario.node[26].veinsmobility stopTime 20
scalar RSUExampleScenario.node[26].veinsmobility minSpeed 2.8869503843567
scalar RSUExampleScenario.node[26].veinsmobility maxSpeed 13.508374844305
scalar RSUExampleScenario.node[26].veinsmobility totalDistance 175.80025872584
scalar RSUExampleScenario.node[26].veinsmobility totalCO2Emission 67.111765165072
scalar RSUExampleScenario.node[27].appl generatedWSMs 0
scalar RSUExampleScenario.node[27].appl receivedWSMs 0
scalar RSUExampleScenario.node[27].appl generatedBSMs 19
scalar RSUExampleScenario.node[27].appl receivedBSMs 594
scalar RSUExampleScenario.node[27].appl generatedWSAs 0
scalar RSUExampleScenario.node[27].appl receivedWSAs 0
scalar RSUExampleScenario.node[27].nic.phy80211p busyTime 0.0034867368421053
scalar RSUExampleScenario.node[27].nic.mac1609_4 ReceivedUnicastPackets 0
scalar RSUExampleScenario.node[27].nic.mac1609_4 ReceivedBroadcasts 594
scalar RSUExampleScenario.node[27].nic.mac1609_4 SentPackets 19
scalar RSUExampleScenario.node[27].nic.mac1609_4 SentAcknowledgements 0
scalar RSUExampleScenario.node[27].nic.mac1609_4 RetriesExceeded 0
scalar RSUExampleScenario.node[27].nic.mac1609_4 SNIRLostPackets 43
scalar RSUExampleScenario.node[27].nic.mac1609_4 RXTXLostPackets 0
scalar RSUExampleScenario.node[27].nic.mac1609_4 TotalLostPackets 43
scalar RSUExampleScenario.node[27].nic.mac1609_4 DroppedPacketsInMac 0
scalar RSUExampleScenario.node[27].nic.mac1609_4 TooLittleTime 0
scalar RSUExampleScenario.node[27].nic.mac1609_4 TimesIntoBackoff 19
scalar RSUExampleScenario.node[27].nic.mac1609_4 SlotsBackoff 31
scalar RSUExampleScenario.node[27].nic.mac1609_4 NumInternalContention 0
scalar RSUExampleScenario.node[27].nic.mac1609_4 totalBusyTime 0.068243
scalar RSUExampleScenario.node[27].nic.mac1609_4 retriesExceeded:count 0
attr source org_car2x_veins_modules_mac_sigRetriesExceeded
scalar RSUExampleScenario.node[27].nic.mac1609_4 sentAcks:count 0
attr source org_car2x_veins_modules_mac_sigSentAck
scalar RSUExampleScenario.node[27].nic.mac1609_4 sentPackets:count 19
attr source org_car2x_veins_modules_mac_sigSentPacket
scalar RSUExampleScenario.node[27].nic.mac1609_4 collisions:count 0
attr source org_car2x_veins_modules_mac_sigCollision
scalar RSUExampleScenario.node[27].nic.mac1609_4 channelBusy:timeavg 0.0035917368421053
attr source org_car2x_veins_modules_mac_sigChannelBusy
scalar RSUExampleScenario.node[27].veinsmobility startTime 1
scalar RSUExampleScenario.node[27].veinsmobility totalTime 19
scalar RSUExampleScenario.node[27].veinsmobility stopTime 20
scalar RSUExampleScenario.node[27].veinsmobility minSpeed 0
scalar RSUExampleScenario.node[27].veinsmobility maxSpeed 14.128647514432
scalar RSUExampleScenario.node[27].veinsmobility totalDistance 167.80065700705
scalar RSUExampleScenario.node[27].veinsmobility totalCO2Emission 74.927063820837
scalar RSUExampleScenario.node[28].appl generatedWSMs 0
scalar RSUExampleScenario.node[28].appl receivedWSMs 0
scalar RSUExampleScenario.node[28].appl generatedBSMs 19
scalar RSUExampleScenario.node[28].appl receivedBSMs 1051
scalar RSUExampleScenario.node[28].appl generatedWSAs 0
scalar RSUExampleScenario.node[28].appl receivedWSAs 0
scalar RSUExampleScenario.node[28].nic.phy80211p busyTime 0.0065793684210528
scalar RSUExampleScenario.node[28].nic.mac1609_4 ReceivedUnicastPackets 0
scalar RSUExampleScenario.node[28].nic.mac1609_4 ReceivedBroadcasts 1051
scalar RSUExampleScenario.node[28].nic.mac1609_4 SentPackets 19
scalar RSUExampleScenario.node[28].nic.mac1609_4 SentAcknowledgements 0
scalar RSUExampleScenario.node[28].nic.mac1609_4 RetriesExceeded 0
scalar RSUExampleScenario.node[28].nic.mac1609_4 SNIRLostPackets 151
scalar RSUExampleScenario.node[28].nic.mac1609_4 RXTXLostPackets 0
scalar RSUExampleScenario.node[28].nic.mac1609_4 TotalLostPackets 151
scalar RSUExampleScenario.node[28].nic.mac1609_4 DroppedPacketsInMac 0
scalar RSUExampleScenario.node[28].nic.mac1609_4 TooLittleTime 0
scalar RSUExampleScenario.node[28].nic.mac1609_4 TimesIntoBackoff 19
scalar RSUExampleScenario.node[28].nic.mac1609_4 SlotsBackoff 27
scalar RSUExampleScenario.node[28].nic.mac1609_4 NumInternalContention 0
scalar RSUExampleScenario.node[28].nic.mac1609_4 totalBusyTime 0.124299
scalar RSUExampleScenario.node[28].nic.mac1609_4 retriesExceeded:count 0
attr source org_car2x_veins_modules_mac_sigRetriesExceeded
scalar RSUExampleScenario.node[28].nic.mac1609_4 sentAcks:count 0
attr source org_car2x_veins_modules_mac_sigSentAck
scalar RSUExampleScenario.node[28].nic.mac1609_4 sentPackets:count 19
attr source org_car2x_veins_modules_mac_sigSentPacket
scalar RSUExampleScenario.node[28].nic.mac1609_4 collisions:count 0
attr source org_car2x_veins_modules_mac_sigCollision
scalar RSUExampleScenario.node[28].nic.mac1609_4 channelBusy:timeavg 0.0065420526315792
attr source org_car2x_veins_modules_mac_sigChannelBusy
scalar RSUExampleScenario.node[28].veinsmobility startTime 1
scalar RSUExampleScenario.node[28].veinsmobility totalTime 19
scalar RSUExampleScenario.node[28].veinsmobility stopTime 20
scalar RSUExampleScenario.node[28].veinsmobility minSpeed 3.142523632152
scalar RSUExampleScenario.node[28].veinsmobility maxSpeed 14.357502133111
scalar RSUExampleScenario.node[28].veinsmobility totalDistance 225.11717623075
scalar RSUExampleScenario.node[28].veinsmobility totalCO2Emission 57.627654405445
scalar RSUExampleScenario.node[29].appl generatedWSMs 0
scalar RSUExampleScenario.node[29].appl receivedWSMs 0
scalar RSUExampleScenario.node[29].appl generatedBSMs 19
scalar RSUExampleScenario.node[29].appl receivedBSMs 551
scalar RSUExampleScenario.node[29].appl generatedWSAs 0
scalar RSUExampleScenario.node[29].appl receivedWSAs 0
scalar RSUExampleScenario.node[29].nic.phy80211p busyTime 0.0032349473684211
scalar RSUExampleScenario.node[29].nic.mac1609_4 ReceivedUnicastPackets 0
scalar RSUExampleScenario.node[29].nic.mac1609_4 ReceivedBroadcasts 551
scalar RSUExampleScenario.node[29].nic.mac1609_4 SentPackets 19
scalar RSUExampleScenario.node[29].nic.mac1609_4 SentAcknowledgements 0
[...]
scalar RSUExampleScenario.node[92].appl receivedBSMs 504
scalar RSUExampleScenario.node[92].appl generatedWSAs 0
scalar RSUExampleScenario.node[92].appl receivedWSAs 0
scalar RSUExampleScenario.node[92].nic.phy80211p busyTime 0.0030214736842105
scalar RSUExampleScenario.node[92].nic.mac1609_4 ReceivedUnicastPackets 0
scalar RSUExampleScenario.node[92].nic.mac1609_4 ReceivedBroadcasts 504
scalar RSUExampleScenario.node[92].nic.mac1609_4 SentPackets 19
scalar RSUExampleScenario.node[92].nic.mac1609_4 SentAcknowledgements 0
scalar RSUExampleScenario.node[92].nic.mac1609_4 RetriesExceeded 0
scalar RSUExampleScenario.node[92].nic.mac1609_4 SNIRLostPackets 48
scalar RSUExampleScenario.node[92].nic.mac1609_4 RXTXLostPackets 0
scalar RSUExampleScenario.node[92].nic.mac1609_4 TotalLostPackets 48
scalar RSUExampleScenario.node[92].nic.mac1609_4 DroppedPacketsInMac 0
scalar RSUExampleScenario.node[92].nic.mac1609_4 TooLittleTime 0
scalar RSUExampleScenario.node[92].nic.mac1609_4 TimesIntoBackoff 19
scalar RSUExampleScenario.node[92].nic.mac1609_4 SlotsBackoff 20
scalar RSUExampleScenario.node[92].nic.mac1609_4 NumInternalContention 0
scalar RSUExampleScenario.node[92].nic.mac1609_4 totalBusyTime 0.059403
scalar RSUExampleScenario.node[92].nic.mac1609_4 retriesExceeded:count 0
attr source org_car2x_veins_modules_mac_sigRetriesExceeded
scalar RSUExampleScenario.node[92].nic.mac1609_4 sentAcks:count 0
attr source org_car2x_veins_modules_mac_sigSentAck
scalar RSUExampleScenario.node[92].nic.mac1609_4 sentPackets:count 19
attr source org_car2x_veins_modules_mac_sigSentPacket
scalar RSUExampleScenario.node[92].nic.mac1609_4 collisions:count 0
attr source org_car2x_veins_modules_mac_sigCollision
scalar RSUExampleScenario.node[92].nic.mac1609_4 channelBusy:timeavg 0.0031264736842105
attr source org_car2x_veins_modules_mac_sigChannelBusy
scalar RSUExampleScenario.node[92].veinsmobility startTime 1
scalar RSUExampleScenario.node[92].veinsmobility totalTime 19
scalar RSUExampleScenario.node[92].veinsmobility stopTime 20
scalar RSUExampleScenario.node[92].veinsmobility minSpeed 14.470429588469
scalar RSUExampleScenario.node[92].veinsmobility maxSpeed 14.594885600245
scalar RSUExampleScenario.node[92].veinsmobility totalDistance 276.06084113163
scalar RSUExampleScenario.node[92].veinsmobility totalCO2Emission 37.680307780272
scalar RSUExampleScenario.node[93].appl generatedWSMs 0
scalar RSUExampleScenario.node[93].appl receivedWSMs 0
scalar RSUExampleScenario.node[93].appl generatedBSMs 19
scalar RSUExampleScenario.node[93].appl receivedBSMs 933
scalar RSUExampleScenario.node[93].appl generatedWSAs 0
scalar RSUExampleScenario.node[93].appl receivedWSAs 0
scalar RSUExampleScenario.node[93].nic.phy80211p busyTime 0.0054736842105265
scalar RSUExampleScenario.node[93].nic.mac1609_4 ReceivedUnicastPackets 0
scalar RSUExampleScenario.node[93].nic.mac1609_4 ReceivedBroadcasts 933
scalar RSUExampleScenario.node[93].nic.mac1609_4 SentPackets 19
scalar RSUExampleScenario.node[93].nic.mac1609_4 SentAcknowledgements 0
scalar RSUExampleScenario.node[93].nic.mac1609_4 RetriesExceeded 0
scalar RSUExampleScenario.node[93].nic.mac1609_4 SNIRLostPackets 67
scalar RSUExampleScenario.node[93].nic.mac1609_4 RXTXLostPackets 0
scalar RSUExampleScenario.node[93].nic.mac1609_4 TotalLostPackets 67
scalar RSUExampleScenario.node[93].nic.mac1609_4 DroppedPacketsInMac 0
scalar RSUExampleScenario.node[93].nic.mac1609_4 TooLittleTime 0
scalar RSUExampleScenario.node[93].nic.mac1609_4 TimesIntoBackoff 19
scalar RSUExampleScenario.node[93].nic.mac1609_4 SlotsBackoff 25
scalar RSUExampleScenario.node[93].nic.mac1609_4 NumInternalContention 0
scalar RSUExampleScenario.node[93].nic.mac1609_4 totalBusyTime 0.103915
scalar RSUExampleScenario.node[93].nic.mac1609_4 retriesExceeded:count 0
attr source org_car2x_veins_modules_mac_sigRetriesExceeded
scalar RSUExampleScenario.node[93].nic.mac1609_4 sentAcks:count 0
attr source org_car2x_veins_modules_mac_sigSentAck
scalar RSUExampleScenario.node[93].nic.mac1609_4 sentPackets:count 19
attr source org_car2x_veins_modules_mac_sigSentPacket
scalar RSUExampleScenario.node[93].nic.mac1609_4 collisions:count 0
attr source org_car2x_veins_modules_mac_sigCollision
scalar RSUExampleScenario.node[93].nic.mac1609_4 channelBusy:timeavg 0.0054692105263159
attr source org_car2x_veins_modules_mac_sigChannelBusy
scalar RSUExampleScenario.node[93].veinsmobility startTime 1
scalar RSUExampleScenario.node[93].veinsmobility totalTime 19
scalar RSUExampleScenario.node[93].veinsmobility stopTime 20
scalar RSUExampleScenario.node[93].veinsmobility minSpeed 6.6878558911895
scalar RSUExampleScenario.node[93].veinsmobility maxSpeed 14.939371599251
scalar RSUExampleScenario.node[93].veinsmobility totalDistance 215.48515123336
scalar RSUExampleScenario.node[93].veinsmobility totalCO2Emission 74.636472224143
scalar RSUExampleScenario.node[94].appl generatedWSMs 0
scalar RSUExampleScenario.node[94].appl receivedWSMs 0
scalar RSUExampleScenario.node[94].appl generatedBSMs 19
scalar RSUExampleScenario.node[94].appl receivedBSMs 1129
scalar RSUExampleScenario.node[94].appl generatedWSAs 0
scalar RSUExampleScenario.node[94].appl receivedWSAs 0
scalar RSUExampleScenario.node[94].nic.phy80211p busyTime 0.0069077894736844
scalar RSUExampleScenario.node[94].nic.mac1609_4 ReceivedUnicastPackets 0
scalar RSUExampleScenario.node[94].nic.mac1609_4 ReceivedBroadcasts 1129
scalar RSUExampleScenario.node[94].nic.mac1609_4 SentPackets 19
scalar RSUExampleScenario.node[94].nic.mac1609_4 SentAcknowledgements 0
scalar RSUExampleScenario.node[94].nic.mac1609_4 RetriesExceeded 0
scalar RSUExampleScenario.node[94].nic.mac1609_4 SNIRLostPackets 133
scalar RSUExampleScenario.node[94].nic.mac1609_4 RXTXLostPackets 0
scalar RSUExampleScenario.node[94].nic.mac1609_4 TotalLostPackets 133
scalar RSUExampleScenario.node[94].nic.mac1609_4 DroppedPacketsInMac 0
scalar RSUExampleScenario.node[94].nic.mac1609_4 TooLittleTime 0
scalar RSUExampleScenario.node[94].nic.mac1609_4 TimesIntoBackoff 19
scalar RSUExampleScenario.node[94].nic.mac1609_4 SlotsBackoff 29
scalar RSUExampleScenario.node[94].nic.mac1609_4 NumInternalContention 0
scalar RSUExampleScenario.node[94].nic.mac1609_4 totalBusyTime 0.130435
scalar RSUExampleScenario.node[94].nic.mac1609_4 retriesExceeded:count 0
attr source org_car2x_veins_modules_mac_sigRetriesExceeded
scalar RSUExampleScenario.node[94].nic.mac1609_4 sentAcks:count 0
attr source org_car2x_veins_modules_mac_sigSentAck
scalar RSUExampleScenario.node[94].nic.mac1609_4 sentPackets:count 19
attr source org_car2x_veins_modules_mac_sigSentPacket
scalar RSUExampleScenario.node[94].nic.mac1609_4 collisions:count 0
attr source org_car2x_veins_modules_mac_sigCollision
scalar RSUExampleScenario.node[94].nic.mac1609_4 channelBusy:timeavg 0.0068650000000002
attr source org_car2x_veins_modules_mac_sigChannelBusy
scalar RSUExampleScenario.node[94].veinsmobility startTime 1
scalar RSUExampleScenario.node[94].veinsmobility totalTime 19
scalar RSUExampleScenario.node[94].veinsmobility stopTime 20
scalar RSUExampleScenario.node[94].veinsmobility minSpeed 6.9841672398685
scalar RSUExampleScenario.node[94].veinsmobility maxSpeed 16.192248801556
scalar RSUExampleScenario.node[94].veinsmobility totalDistance 236.29392122363
scalar RSUExampleScenario.node[94].veinsmobility totalCO2Emission 82.304750812073
scalar RSUExampleScenario.node[95].appl generatedWSMs 0
scalar RSUExampleScenario.node[95].appl receivedWSMs 0
scalar RSUExampleScenario.node[95].appl generatedBSMs 19
scalar RSUExampleScenario.node[95].appl receivedBSMs 903
scalar RSUExampleScenario.node[95].appl generatedWSAs 0
scalar RSUExampleScenario.node[95].appl receivedWSAs 0
scalar RSUExampleScenario.node[95].nic.phy80211p busyTime 0.0058349473684212
scalar RSUExampleScenario.node[95].nic.mac1609_4 ReceivedUnicastPackets 0
scalar RSUExampleScenario.node[95].nic.mac1609_4 ReceivedBroadcasts 903
scalar RSUExampleScenario.node[95].nic.mac1609_4 SentPackets 19
scalar RSUExampleScenario.node[95].nic.mac1609_4 SentAcknowledgements 0
scalar RSUExampleScenario.node[95].nic.mac1609_4 RetriesExceeded 0
scalar RSUExampleScenario.node[95].nic.mac1609_4 SNIRLostPackets 163
scalar RSUExampleScenario.node[95].nic.mac1609_4 RXTXLostPackets 0
scalar RSUExampleScenario.node[95].nic.mac1609_4 TotalLostPackets 163
scalar RSUExampleScenario.node[95].nic.mac1609_4 DroppedPacketsInMac 0
scalar RSUExampleScenario.node[95].nic.mac1609_4 TooLittleTime 0
scalar RSUExampleScenario.node[95].nic.mac1609_4 TimesIntoBackoff 19
scalar RSUExampleScenario.node[95].nic.mac1609_4 SlotsBackoff 23
scalar RSUExampleScenario.node[95].nic.mac1609_4 NumInternalContention 0
scalar RSUExampleScenario.node[95].nic.mac1609_4 totalBusyTime 0.108021945763
scalar RSUExampleScenario.node[95].nic.mac1609_4 retriesExceeded:count 0
attr source org_car2x_veins_modules_mac_sigRetriesExceeded
scalar RSUExampleScenario.node[95].nic.mac1609_4 sentAcks:count 0
attr source org_car2x_veins_modules_mac_sigSentAck
scalar RSUExampleScenario.node[95].nic.mac1609_4 sentPackets:count 19
attr source org_car2x_veins_modules_mac_sigSentPacket
scalar RSUExampleScenario.node[95].nic.mac1609_4 collisions:count 0
attr source org_car2x_veins_modules_mac_sigCollision
scalar RSUExampleScenario.node[95].nic.mac1609_4 channelBusy:timeavg 0.0056853655664738
attr source org_car2x_veins_modules_mac_sigChannelBusy
scalar RSUExampleScenario.node[95].veinsmobility startTime 1
scalar RSUExampleScenario.node[95].veinsmobility totalTime 19
scalar RSUExampleScenario.node[95].veinsmobility stopTime 20
scalar RSUExampleScenario.node[95].veinsmobility minSpeed 7.0826468006307
scalar RSUExampleScenario.node[95].veinsmobility maxSpeed 15.622911057502
scalar RSUExampleScenario.node[95].veinsmobility totalDistance 205.94329889552
scalar RSUExampleScenario.node[95].veinsmobility totalCO2Emission 79.181202219055
scalar RSUExampleScenario.node[96].appl generatedWSMs 0
scalar RSUExampleScenario.node[96].appl receivedWSMs 0
scalar RSUExampleScenario.node[96].appl generatedBSMs 19
scalar RSUExampleScenario.node[96].appl receivedBSMs 394
scalar RSUExampleScenario.node[96].appl generatedWSAs 0
scalar RSUExampleScenario.node[96].appl receivedWSAs 0
scalar RSUExampleScenario.node[96].nic.phy80211p busyTime 0.0023208421052632
scalar RSUExampleScenario.node[96].nic.mac1609_4 ReceivedUnicastPackets 0
scalar RSUExampleScenario.node[96].nic.mac1609_4 ReceivedBroadcasts 394
scalar RSUExampleScenario.node[96].nic.mac1609_4 SentPackets 19
scalar RSUExampleScenario.node[96].nic.mac1609_4 SentAcknowledgements 0
scalar RSUExampleScenario.node[96].nic.mac1609_4 RetriesExceeded 0
scalar RSUExampleScenario.node[96].nic.mac1609_4 SNIRLostPackets 30
scalar RSUExampleScenario.node[96].nic.mac1609_4 RXTXLostPackets 0
scalar RSUExampleScenario.node[96].nic.mac1609_4 TotalLostPackets 30
scalar RSUExampleScenario.node[96].nic.mac1609_4 DroppedPacketsInMac 0
scalar RSUExampleScenario.node[96].nic.mac1609_4 TooLittleTime 0
scalar RSUExampleScenario.node[96].nic.mac1609_4 TimesIntoBackoff 19
scalar RSUExampleScenario.node[96].nic.mac1609_4 SlotsBackoff 28
scalar RSUExampleScenario.node[96].nic.mac1609_4 NumInternalContention 0
scalar RSUExampleScenario.node[96].nic.mac1609_4 totalBusyTime 0.046091
scalar RSUExampleScenario.node[96].nic.mac1609_4 retriesExceeded:count 0
attr source org_car2x_veins_modules_mac_sigRetriesExceeded
scalar RSUExampleScenario.node[96].nic.mac1609_4 sentAcks:count 0
attr source org_car2x_veins_modules_mac_sigSentAck
scalar RSUExampleScenario.node[96].nic.mac1609_4 sentPackets:count 19
attr source org_car2x_veins_modules_mac_sigSentPacket
scalar RSUExampleScenario.node[96].nic.mac1609_4 collisions:count 0
attr source org_car2x_veins_modules_mac_sigCollision
scalar RSUExampleScenario.node[96].nic.mac1609_4 channelBusy:timeavg 0.0024258421052632
attr source org_car2x_veins_modules_mac_sigChannelBusy
scalar RSUExampleScenario.node[96].veinsmobility startTime 1
scalar RSUExampleScenario.node[96].veinsmobility totalTime 19
scalar RSUExampleScenario.node[96].veinsmobility stopTime 20
scalar RSUExampleScenario.node[96].veinsmobility minSpeed 7.1004910266251
scalar RSUExampleScenario.node[96].veinsmobility maxSpeed 14.034525314928
scalar RSUExampleScenario.node[96].veinsmobility totalDistance 207.52008615701
scalar RSUExampleScenario.node[96].veinsmobility totalCO2Emission 65.631318976849
scalar RSUExampleScenario.node[97].appl generatedWSMs 0
scalar RSUExampleScenario.node[97].appl receivedWSMs 0
scalar RSUExampleScenario.node[97].appl generatedBSMs 19
scalar RSUExampleScenario.node[97].appl receivedBSMs 875
scalar RSUExampleScenario.node[97].appl generatedWSAs 0
scalar RSUExampleScenario.node[97].appl receivedWSAs 0
scalar RSUExampleScenario.node[97].nic.phy80211p busyTime 0.005271157894737
scalar RSUExampleScenario.node[97].nic.mac1609_4 ReceivedUnicastPackets 0
scalar RSUExampleScenario.node[97].nic.mac1609_4 ReceivedBroadcasts 875
scalar RSUExampleScenario.node[97].nic.mac1609_4 SentPackets 19
scalar RSUExampleScenario.node[97].nic.mac1609_4 SentAcknowledgements 0
scalar RSUExampleScenario.node[97].nic.mac1609_4 RetriesExceeded 0
scalar RSUExampleScenario.node[97].nic.mac1609_4 SNIRLostPackets 88
scalar RSUExampleScenario.node[97].nic.mac1609_4 RXTXLostPackets 0
scalar RSUExampleScenario.node[97].nic.mac1609_4 TotalLostPackets 88
scalar RSUExampleScenario.node[97].nic.mac1609_4 DroppedPacketsInMac 0
scalar RSUExampleScenario.node[97].nic.mac1609_4 TooLittleTime 0
scalar RSUExampleScenario.node[97].nic.mac1609_4 TimesIntoBackoff 19
scalar RSUExampleScenario.node[97].nic.mac1609_4 SlotsBackoff 33
scalar RSUExampleScenario.node[97].nic.mac1609_4 NumInternalContention 0
scalar RSUExampleScenario.node[97].nic.mac1609_4 totalBusyTime 0.101315
scalar RSUExampleScenario.node[97].nic.mac1609_4 retriesExceeded:count 0
attr source org_car2x_veins_modules_mac_sigRetriesExceeded
scalar RSUExampleScenario.node[97].nic.mac1609_4 sentAcks:count 0
attr source org_car2x_veins_modules_mac_sigSentAck
scalar RSUExampleScenario.node[97].nic.mac1609_4 sentPackets:count 19
attr source org_car2x_veins_modules_mac_sigSentPacket
scalar RSUExampleScenario.node[97].nic.mac1609_4 collisions:count 0
attr source org_car2x_veins_modules_mac_sigCollision
scalar RSUExampleScenario.node[97].nic.mac1609_4 channelBusy:timeavg 0.0053323684210528
attr source org_car2x_veins_modules_mac_sigChannelBusy
scalar RSUExampleScenario.node[97].veinsmobility startTime 1
scalar RSUExampleScenario.node[97].veinsmobility totalTime 19
scalar RSUExampleScenario.node[97].veinsmobility stopTime 20
scalar RSUExampleScenario.node[97].veinsmobility minSpeed 6.4528266733966
scalar RSUExampleScenario.node[97].veinsmobility maxSpeed 16.165911034388
scalar RSUExampleScenario.node[97].veinsmobility totalDistance 254.40077764232
scalar RSUExampleScenario.node[97].veinsmobility totalCO2Emission 61.133464325362
scalar RSUExampleScenario.node[98].appl generatedWSMs 0
scalar RSUExampleScenario.node[98].appl receivedWSMs 0
scalar RSUExampleScenario.node[98].appl generatedBSMs 19
scalar RSUExampleScenario.node[98].appl receivedBSMs 342
scalar RSUExampleScenario.node[98].appl generatedWSAs 0
scalar RSUExampleScenario.node[98].appl receivedWSAs 0
scalar RSUExampleScenario.node[98].nic.phy80211p busyTime 0.0021566315789474
scalar RSUExampleScenario.node[98].nic.mac1609_4 ReceivedUnicastPackets 0
scalar RSUExampleScenario.node[98].nic.mac1609_4 ReceivedBroadcasts 342
scalar RSUExampleScenario.node[98].nic.mac1609_4 SentPackets 19
scalar RSUExampleScenario.node[98].nic.mac1609_4 SentAcknowledgements 0
scalar RSUExampleScenario.node[98].nic.mac1609_4 RetriesExceeded 0
scalar RSUExampleScenario.node[98].nic.mac1609_4 SNIRLostPackets 52
scalar RSUExampleScenario.node[98].nic.mac1609_4 RXTXLostPackets 0
scalar RSUExampleScenario.node[98].nic.mac1609_4 TotalLostPackets 52
scalar RSUExampleScenario.node[98].nic.mac1609_4 DroppedPacketsInMac 0
scalar RSUExampleScenario.node[98].nic.mac1609_4 TooLittleTime 0
scalar RSUExampleScenario.node[98].nic.mac1609_4 TimesIntoBackoff 19
scalar RSUExampleScenario.node[98].nic.mac1609_4 SlotsBackoff 36
scalar RSUExampleScenario.node[98].nic.mac1609_4 NumInternalContention 0
scalar RSUExampleScenario.node[98].nic.mac1609_4 totalBusyTime 0.042971
scalar RSUExampleScenario.node[98].nic.mac1609_4 retriesExceeded:count 0
attr source org_car2x_veins_modules_mac_sigRetriesExceeded
scalar RSUExampleScenario.node[98].nic.mac1609_4 sentAcks:count 0
attr source org_car2x_veins_modules_mac_sigSentAck
scalar RSUExampleScenario.node[98].nic.mac1609_4 sentPackets:count 19
attr source org_car2x_veins_modules_mac_sigSentPacket
scalar RSUExampleScenario.node[98].nic.mac1609_4 collisions:count 0
attr source org_car2x_veins_modules_mac_sigCollision
scalar RSUExampleScenario.node[98].nic.mac1609_4 channelBusy:timeavg 0.0022616315789474
attr source org_car2x_veins_modules_mac_sigChannelBusy
scalar RSUExampleScenario.node[98].veinsmobility startTime 1
scalar RSUExampleScenario.node[98].veinsmobility totalTime 19
scalar RSUExampleScenario.node[98].veinsmobility stopTime 20
scalar RSUExampleScenario.node[98].veinsmobility minSpeed 3.2971202123064
scalar RSUExampleScenario.node[98].veinsmobility maxSpeed 12.201401692104
scalar RSUExampleScenario.node[98].veinsmobility totalDistance 193.60852311533
scalar RSUExampleScenario.node[98].veinsmobility totalCO2Emission 47.683543240913
scalar RSUExampleScenario.node[99].appl generatedWSMs 0
scalar RSUExampleScenario.node[99].appl receivedWSMs 0
scalar RSUExampleScenario.node[99].appl generatedBSMs 19
scalar RSUExampleScenario.node[99].appl receivedBSMs 333
scalar RSUExampleScenario.node[99].appl generatedWSAs 0
scalar RSUExampleScenario.node[99].appl receivedWSAs 0
scalar RSUExampleScenario.node[99].nic.phy80211p busyTime 0.001976
scalar RSUExampleScenario.node[99].nic.mac1609_4 ReceivedUnicastPackets 0
scalar RSUExampleScenario.node[99].nic.mac1609_4 ReceivedBroadcasts 333
scalar RSUExampleScenario.node[99].nic.mac1609_4 SentPackets 19
scalar RSUExampleScenario.node[99].nic.mac1609_4 SentAcknowledgements 0
scalar RSUExampleScenario.node[99].nic.mac1609_4 RetriesExceeded 0
scalar RSUExampleScenario.node[99].nic.mac1609_4 SNIRLostPackets 28
scalar RSUExampleScenario.node[99].nic.mac1609_4 RXTXLostPackets 0
scalar RSUExampleScenario.node[99].nic.mac1609_4 TotalLostPackets 28
scalar RSUExampleScenario.node[99].nic.mac1609_4 DroppedPacketsInMac 0
scalar RSUExampleScenario.node[99].nic.mac1609_4 TooLittleTime 0
scalar RSUExampleScenario.node[99].nic.mac1609_4 TimesIntoBackoff 19
scalar RSUExampleScenario.node[99].nic.mac1609_4 SlotsBackoff 28
scalar RSUExampleScenario.node[99].nic.mac1609_4 NumInternalContention 0
scalar RSUExampleScenario.node[99].nic.mac1609_4 totalBusyTime 0.039539
scalar RSUExampleScenario.node[99].nic.mac1609_4 retriesExceeded:count 0
attr source org_car2x_veins_modules_mac_sigRetriesExceeded
scalar RSUExampleScenario.node[99].nic.mac1609_4 sentAcks:count 0
attr source org_car2x_veins_modules_mac_sigSentAck
scalar RSUExampleScenario.node[99].nic.mac1609_4 sentPackets:count 19
attr source org_car2x_veins_modules_mac_sigSentPacket
scalar RSUExampleScenario.node[99].nic.mac1609_4 collisions:count 0
attr source org_car2x_veins_modules_mac_sigCollision
scalar RSUExampleScenario.node[99].nic.mac1609_4 channelBusy:timeavg 0.002081
attr source org_car2x_veins_modules_mac_sigChannelBusy
scalar RSUExampleScenario.node[99].veinsmobility startTime 1
scalar RSUExampleScenario.node[99].veinsmobility totalTime 19
scalar RSUExampleScenario.node[99].veinsmobility stopTime 20
scalar RSUExampleScenario.node[99].veinsmobility minSpeed 7.5058378454057
scalar RSUExampleScenario.node[99].veinsmobility maxSpeed 17.219335604883
scalar RSUExampleScenario.node[99].veinsmobility totalDistance 280.77390926687
scalar RSUExampleScenario.node[99].veinsmobility totalCO2Emission 67.388482007565
scalar RSUExampleScenario.manager roiArea 0

