version 2
run General-0-20210917-08:14:58-208270
attr configname General
attr datetime 20210917-08:14:58
attr experiment General
attr inifile omnetpp.ini
attr iterationvars ""
attr iterationvarsf ""
attr measurement ""
attr network RSUExampleScenario
attr processid 208270
attr repetition 0
attr replication #0
attr resultdir results
attr runnumber 0
attr seedset 0
param *.playgroundSizeX 2500m
param *.playgroundSizeY 2500m
param *.playgroundSizeZ 50m
param *.annotations.draw false
param *.manager.updateInterval 1s
param *.manager.host "\"localhost\""
param *.manager.port 9999
param *.manager.autoShutdown false
param *.manager.launchConfig "xmldoc(\"manhattan.launchd.xml\")"
param *.rsu[0].mobility.x 2000
param *.rsu[0].mobility.y 2000
param *.rsu[0].mobility.z 3
param *.rsu[*].applType "\"TraCIDemoRSU11p\""
param *.rsu[*].appl.headerLength "80 bit"
param *.rsu[*].appl.sendBeacons false
param *.rsu[*].appl.dataOnSch false
param *.rsu[*].appl.beaconInterval 1s
param *.rsu[*].appl.beaconUserPriority 7
param *.rsu[*].appl.dataUserPriority 5
param *.rsu[*].nic.phy80211p.antennaOffsetZ "0 m"
param *.connectionManager.sendDirect true
param *.connectionManager.maxInterfDist 420m
param *.connectionManager.drawMaxIntfDist true
param *.**.nic.mac1609_4.useServiceChannel false
param *.**.nic.mac1609_4.txPower 20mW
param *.**.nic.mac1609_4.bitrate 6Mbps
param *.**.nic.phy80211p.minPowerLevel -110dBm
param *.**.nic.phy80211p.useNoiseFloor true
param *.**.nic.phy80211p.noiseFloor -98dBm
param *.**.nic.phy80211p.decider "xmldoc(\"config.xml\")"
param *.**.nic.phy80211p.analogueModels "xmldoc(\"config.xml\")"
param *.**.nic.phy80211p.usePropagationDelay true
param *.**.nic.phy80211p.antenna "xmldoc(\"antenna.xml\", \"/root/Antenna[@id='monopole']\")"
param *.node[*].nic.phy80211p.antennaOffsetY "0 m"
param *.node[*].nic.phy80211p.antennaOffsetZ "1.895 m"
param *.node[*].nic.phy80211p.antennaOffsetX "-1 m"
param *.node[*].applType "\"JosephVeinsApp\""
param *.node[*].appl.headerLength "80 bit"
param *.node[*].appl.sendBeacons true
param *.node[*].appl.dataOnSch false
param *.node[*].appl.beaconInterval 1s
param *.node[*].appl.serialNumber "\"ManhattanGrid-ITSG5-trust-1\""
param *.node[*].appl.savePath "\"../../../f2md-results/sim-traces/\""
param *.node[*].appl.UseAttacksServer false
param *.node[*].appl.MixLocalAttacks false
param *.node[*].appl.RandomLocalMix false
param *.node[*].appl.LOCAL_ATTACKER_PROB 0.3
param *.node[*].appl.LOCAL_ATTACK_TYPE 3
param *.node[*].appl.GLOBAL_ATTACKER_PROB 0.0
param *.node[*].appl.GLOBAL_ATTACK_TYPE 20
param *.node[*].appl.EnablePC false
param *.node[*].appl.PC_TYPE 5
param *.node[*].appl.EnableV1 true
param *.node[*].appl.EnableV2 false
param *.node[*].appl.SaveStatsV1 true
param *.node[*].appl.SaveStatsV2 false
param *.node[*].appl.checksVersionV1 1
param *.node[*].appl.checksVersionV2 1
param *.node[*].appl.appTypeV1 0
param *.node[*].appl.appTypeV2 1
param *.node[*].appl.appl.REPORT_VERSION 2
param *.node[*].appl.sendReportsV1 false
param *.node[*].appl.sendReportsV2 false
param *.node[*].appl.maHostV1 "\"localhost\""
param *.node[*].appl.maHostV2 "\"localhost\""
param *.node[*].appl.maPortV1 9980
param *.node[*].appl.maPortV2 9981
param *.node[*].appl.writeSelfMsg false
param *.node[*].appl.writeListSelfMsg false
param *.node[*].appl.writeBsmsV1 false
param *.node[*].appl.writeBsmsV2 false
param *.node[*].appl.writeListBsmsV1 true
param *.node[*].appl.writeListBsmsV2 true
param *.node[*].appl.writeReportsV1 false
param *.node[*].appl.writeReportsV2 true
param *.node[*].appl.writeListReportsV1 false
param *.node[*].appl.writeListReportsV2 true
param *.node[*].appl.writeVeReMi true
param *.node[*].appl.VeReMiSliceTime 3600
param *.node[*].appl.veremiConf true
param *.node[*].appl.randomConf false
param *.node[*].appl.variableConf false
param *.node[*].appl.confPos 10.0
param *.node[*].appl.confSpd 0.05
param *.node[*].appl.confHea 20.0
param *.node[*].appl.confAcc 0.01
param *.node[*].appl.confPrec 100.0
param *.node[*].appl.minConf 0.20
param *.node[*].appl.SAVE_PERIOD 5
param *.node[*].appl.PRINT_PERIOD 60
param *.node[*].appl.START_SAVE 0
param *.node[*].appl.START_ATTACK 0
param *.node[*].appl.enableVarThreV1 false
param *.node[*].appl.enableVarThreV2 false
param *.node[*].appl.MAX_PROXIMITY_RANGE_L 30
param *.node[*].appl.MAX_PROXIMITY_RANGE_W 3
param *.node[*].appl.MAX_PROXIMITY_DISTANCE 2
param *.node[*].appl.MAX_CONFIDENCE_RANGE 10
param *.node[*].appl.MAX_PLAUSIBLE_RANGE 420
param *.node[*].appl.MAX_TIME_DELTA 3.1
param *.node[*].appl.MAX_DELTA_INTER 2.0
param *.node[*].appl.MAX_SA_RANGE 420
param *.node[*].appl.MAX_SA_TIME 2.1
param *.node[*].appl.MAX_KALMAN_TIME 3.1
param *.node[*].appl.KALMAN_POS_RANGE 1.0
param *.node[*].appl.KALMAN_SPEED_RANGE 4.0
param *.node[*].appl.KALMAN_MIN_POS_RANGE 4.0
param *.node[*].appl.KALMAN_MIN_SPEED_RANGE 1.0
param *.node[*].appl.MIN_MAX_SPEED 40
param *.node[*].appl.MIN_MAX_ACCEL 3
param *.node[*].appl.MIN_MAX_DECEL 4.5
param *.node[*].appl.MAX_MGT_RNG 4
param *.node[*].appl.MAX_MGT_RNG_DOWN 6.2
param *.node[*].appl.MAX_MGT_RNG_UP 2.1
param *.node[*].appl.MAX_BEACON_FREQUENCY 0.99
param *.node[*].appl.MAX_DISTANCE_FROM_ROUTE 2
param *.node[*].appl.MAX_NON_ROUTE_SPEED -1
param *.node[*].appl.MAX_HEADING_CHANGE 90
param *.node[*].appl.DELTA_BSM_TIME 5
param *.node[*].appl.DELTA_REPORT_TIME 5
param *.node[*].appl.POS_HEADING_TIME 1.1
param *.node[*].appl.MAX_TARGET_TIME 2
param *.node[*].appl.MAX_ACCUSED_TIME 2
param *.node[*].appl.parVar 0.55
param *.node[*].appl.RandomPosOffsetX 70.0
param *.node[*].appl.RandomPosOffsetY 70.0
param *.node[*].appl.RandomSpeedX 40.0
param *.node[*].appl.RandomSpeedY 40.0
param *.node[*].appl.RandomSpeedOffsetX 7.0
param *.node[*].appl.RandomSpeedOffsetY 7.0
param *.node[*].appl.RandomAccelX 2.0
param *.node[*].appl.RandomAccelY 2.0
param *.node[*].appl.StopProb 0.05
param *.node[*].appl.StaleMessages_Buffer 60
param *.node[*].appl.DosMultipleFreq 4
param *.node[*].appl.DosMultipleFreqSybil 2
param *.node[*].appl.ReplaySeqNum 6
param *.node[*].appl.SybilVehNumber 5
param *.node[*].appl.SelfSybil false
param *.node[*].appl.SybilDistanceX 5
param *.node[*].appl.SybilDistanceY 2
param *.node[*].appl.MyConstantPos 1000
param *.node[*].appl.Period_Change_Time 240
param *.node[*].appl.Tolerance_Buffer 10
param *.node[*].appl.Period_Change_Distance 80
param *.node[*].appl.Random_Change_Chance 0.1
param *.node[*].appl.InitialHistory 5
param *.node[*].appl.CollectionPeriod 10
param *.node[*].appl.UntolerancePeriod 5
param *.node[*].veinsmobilityType.debug true
param *.node[*].veinsmobility.x 0
param *.node[*].veinsmobility.y 0
param *.node[*].veinsmobility.z 1.895
param *.node[*].veinsmobility.setHostSpeed true
param *.node[*].veinsmobility.setHostAcceleration true
param *.node[*].veinsmobility.hostPositionOffset 1.25m

vector 0 RSUExampleScenario.node[0].veinsmobility posx ETV
vector 1 RSUExampleScenario.node[0].veinsmobility posy ETV
vector 2 RSUExampleScenario.node[1].veinsmobility posx ETV
vector 3 RSUExampleScenario.node[1].veinsmobility posy ETV
vector 4 RSUExampleScenario.node[2].veinsmobility posx ETV
vector 5 RSUExampleScenario.node[2].veinsmobility posy ETV
vector 6 RSUExampleScenario.node[3].veinsmobility posx ETV
vector 7 RSUExampleScenario.node[3].veinsmobility posy ETV
vector 8 RSUExampleScenario.node[4].veinsmobility posx ETV
vector 9 RSUExampleScenario.node[4].veinsmobility posy ETV
vector 10 RSUExampleScenario.node[5].veinsmobility posx ETV
vector 11 RSUExampleScenario.node[5].veinsmobility posy ETV
vector 12 RSUExampleScenario.node[6].veinsmobility posx ETV
vector 13 RSUExampleScenario.node[6].veinsmobility posy ETV
vector 14 RSUExampleScenario.node[7].veinsmobility posx ETV
vector 15 RSUExampleScenario.node[7].veinsmobility posy ETV
vector 16 RSUExampleScenario.node[8].veinsmobility posx ETV
vector 17 RSUExampleScenario.node[8].veinsmobility posy ETV
vector 18 RSUExampleScenario.node[9].veinsmobility posx ETV
vector 19 RSUExampleScenario.node[9].veinsmobility posy ETV
vector 20 RSUExampleScenario.node[10].veinsmobility posx ETV
vector 21 RSUExampleScenario.node[10].veinsmobility posy ETV
vector 22 RSUExampleScenario.node[11].veinsmobility posx ETV
vector 23 RSUExampleScenario.node[11].veinsmobility posy ETV
vector 24 RSUExampleScenario.node[12].veinsmobility posx ETV
vector 25 RSUExampleScenario.node[12].veinsmobility posy ETV
vector 26 RSUExampleScenario.node[13].veinsmobility posx ETV
vector 27 RSUExampleScenario.node[13].veinsmobility posy ETV
vector 28 RSUExampleScenario.node[14].veinsmobility posx ETV
vector 29 RSUExampleScenario.node[14].veinsmobility posy ETV
vector 30 RSUExampleScenario.node[15].veinsmobility posx ETV
vector 31 RSUExampleScenario.node[15].veinsmobility posy ETV
vector 32 RSUExampleScenario.node[16].veinsmobility posx ETV
vector 33 RSUExampleScenario.node[16].veinsmobility posy ETV
vector 34 RSUExampleScenario.node[17].veinsmobility posx ETV
vector 35 RSUExampleScenario.node[17].veinsmobility posy ETV
vector 36 RSUExampleScenario.node[18].veinsmobility posx ETV
vector 37 RSUExampleScenario.node[18].veinsmobility posy ETV
vector 38 RSUExampleScenario.node[19].veinsmobility posx ETV
vector 39 RSUExampleScenario.node[19].veinsmobility posy ETV
vector 40 RSUExampleScenario.node[20].veinsmobility posx ETV
vector 41 RSUExampleScenario.node[20].veinsmobility posy ETV
vector 42 RSUExampleScenario.node[21].veinsmobility posx ETV
vector 43 RSUExampleScenario.node[21].veinsmobility posy ETV
vector 44 RSUExampleScenario.node[22].veinsmobility posx ETV
vector 45 RSUExampleScenario.node[22].veinsmobility posy ETV
vector 46 RSUExampleScenario.node[23].veinsmobility posx ETV
vector 47 RSUExampleScenario.node[23].veinsmobility posy ETV
vector 48 RSUExampleScenario.node[24].veinsmobility posx ETV
vector 49 RSUExampleScenario.node[24].veinsmobility posy ETV
vector 50 RSUExampleScenario.node[25].veinsmobility posx ETV
vector 51 RSUExampleScenario.node[25].veinsmobility posy ETV
vector 52 RSUExampleScenario.node[26].veinsmobility posx ETV
vector 53 RSUExampleScenario.node[26].veinsmobility posy ETV
vector 54 RSUExampleScenario.node[27].veinsmobility posx ETV
vector 55 RSUExampleScenario.node[27].veinsmobility posy ETV
vector 56 RSUExampleScenario.node[28].veinsmobility posx ETV
vector 57 RSUExampleScenario.node[28].veinsmobility posy ETV
vector 58 RSUExampleScenario.node[29].veinsmobility posx ETV
vector 59 RSUExampleScenario.node[29].veinsmobility posy ETV
vector 60 RSUExampleScenario.node[30].veinsmobility posx ETV
vector 61 RSUExampleScenario.node[30].veinsmobility posy ETV
vector 62 RSUExampleScenario.node[31].veinsmobility posx ETV
vector 63 RSUExampleScenario.node[31].veinsmobility posy ETV
vector 64 RSUExampleScenario.node[32].veinsmobility posx ETV
vector 65 RSUExampleScenario.node[32].veinsmobility posy ETV
vector 66 RSUExampleScenario.node[33].veinsmobility posx ETV
vector 67 RSUExampleScenario.node[33].veinsmobility posy ETV
vector 68 RSUExampleScenario.node[34].veinsmobility posx ETV
vector 69 RSUExampleScenario.node[34].veinsmobility posy ETV
vector 70 RSUExampleScenario.node[35].veinsmobility posx ETV
vector 71 RSUExampleScenario.node[35].veinsmobility posy ETV
vector 72 RSUExampleScenario.node[36].veinsmobility posx ETV
vector 73 RSUExampleScenario.node[36].veinsmobility posy ETV
vector 74 RSUExampleScenario.node[37].veinsmobility posx ETV
vector 75 RSUExampleScenario.node[37].veinsmobility posy ETV
vector 76 RSUExampleScenario.node[38].veinsmobility posx ETV
vector 77 RSUExampleScenario.node[38].veinsmobility posy ETV
vector 78 RSUExampleScenario.node[39].veinsmobility posx ETV
vector 79 RSUExampleScenario.node[39].veinsmobility posy ETV
vector 80 RSUExampleScenario.node[40].veinsmobility posx ETV
vector 81 RSUExampleScenario.node[40].veinsmobility posy ETV
vector 82 RSUExampleScenario.node[41].veinsmobility posx ETV
vector 83 RSUExampleScenario.node[41].veinsmobility posy ETV
vector 84 RSUExampleScenario.node[42].veinsmobility posx ETV
vector 85 RSUExampleScenario.node[42].veinsmobility posy ETV
vector 86 RSUExampleScenario.node[43].veinsmobility posx ETV
vector 87 RSUExampleScenario.node[43].veinsmobility posy ETV
vector 88 RSUExampleScenario.node[44].veinsmobility posx ETV
vector 89 RSUExampleScenario.node[44].veinsmobility posy ETV
vector 90 RSUExampleScenario.node[45].veinsmobility posx ETV
vector 91 RSUExampleScenario.node[45].veinsmobility posy ETV
vector 92 RSUExampleScenario.node[46].veinsmobility posx ETV
vector 93 RSUExampleScenario.node[46].veinsmobility posy ETV
vector 94 RSUExampleScenario.node[47].veinsmobility posx ETV
vector 95 RSUExampleScenario.node[47].veinsmobility posy ETV
vector 96 RSUExampleScenario.node[48].veinsmobility posx ETV
vector 97 RSUExampleScenario.node[48].veinsmobility posy ETV
vector 98 RSUExampleScenario.node[49].veinsmobility posx ETV
vector 99 RSUExampleScenario.node[49].veinsmobility posy ETV
vector 100 RSUExampleScenario.node[50].veinsmobility posx ETV
vector 101 RSUExampleScenario.node[50].veinsmobility posy ETV
vector 102 RSUExampleScenario.node[51].veinsmobility posx ETV
vector 103 RSUExampleScenario.node[51].veinsmobility posy ETV
vector 104 RSUExampleScenario.node[52].veinsmobility posx ETV
vector 105 RSUExampleScenario.node[52].veinsmobility posy ETV
vector 106 RSUExampleScenario.node[53].veinsmobility posx ETV
vector 107 RSUExampleScenario.node[53].veinsmobility posy ETV
vector 108 RSUExampleScenario.node[54].veinsmobility posx ETV
vector 109 RSUExampleScenario.node[54].veinsmobility posy ETV
vector 110 RSUExampleScenario.node[55].veinsmobility posx ETV
vector 111 RSUExampleScenario.node[55].veinsmobility posy ETV
vector 112 RSUExampleScenario.node[56].veinsmobility posx ETV
vector 113 RSUExampleScenario.node[56].veinsmobility posy ETV
vector 114 RSUExampleScenario.node[57].veinsmobility posx ETV
vector 115 RSUExampleScenario.node[57].veinsmobility posy ETV
vector 116 RSUExampleScenario.node[58].veinsmobility posx ETV
vector 117 RSUExampleScenario.node[58].veinsmobility posy ETV
vector 118 RSUExampleScenario.node[59].veinsmobility posx ETV
vector 119 RSUExampleScenario.node[59].veinsmobility posy ETV
vector 120 RSUExampleScenario.node[60].veinsmobility posx ETV
vector 121 RSUExampleScenario.node[60].veinsmobility posy ETV
vector 122 RSUExampleScenario.node[61].veinsmobility posx ETV
vector 123 RSUExampleScenario.node[61].veinsmobility posy ETV
vector 124 RSUExampleScenario.node[62].veinsmobility posx ETV
vector 125 RSUExampleScenario.node[62].veinsmobility posy ETV
vector 126 RSUExampleScenario.node[63].veinsmobility posx ETV
vector 127 RSUExampleScenario.node[63].veinsmobility posy ETV
vector 128 RSUExampleScenario.node[64].veinsmobility posx ETV
vector 129 RSUExampleScenario.node[64].veinsmobility posy ETV
vector 130 RSUExampleScenario.node[65].veinsmobility posx ETV
vector 131 RSUExampleScenario.node[65].veinsmobility posy ETV
vector 132 RSUExampleScenario.node[66].veinsmobility posx ETV
vector 133 RSUExampleScenario.node[66].veinsmobility posy ETV
vector 134 RSUExampleScenario.node[67].veinsmobility posx ETV
vector 135 RSUExampleScenario.node[67].veinsmobility posy ETV
vector 136 RSUExampleScenario.node[68].veinsmobility posx ETV
vector 137 RSUExampleScenario.node[68].veinsmobility posy ETV
vector 138 RSUExampleScenario.node[69].veinsmobility posx ETV
vector 139 RSUExampleScenario.node[69].veinsmobility posy ETV
vector 140 RSUExampleScenario.node[70].veinsmobility posx ETV
vector 141 RSUExampleScenario.node[70].veinsmobility posy ETV
vector 142 RSUExampleScenario.node[71].veinsmobility posx ETV
vector 143 RSUExampleScenario.node[71].veinsmobility posy ETV
vector 144 RSUExampleScenario.node[72].veinsmobility posx ETV
vector 145 RSUExampleScenario.node[72].veinsmobility posy ETV
vector 146 RSUExampleScenario.node[73].veinsmobility posx ETV
vector 147 RSUExampleScenario.node[73].veinsmobility posy ETV
vector 148 RSUExampleScenario.node[74].veinsmobility posx ETV
vector 149 RSUExampleScenario.node[74].veinsmobility posy ETV
vector 150 RSUExampleScenario.node[75].veinsmobility posx ETV
vector 151 RSUExampleScenario.node[75].veinsmobility posy ETV
vector 152 RSUExampleScenario.node[76].veinsmobility posx ETV
vector 153 RSUExampleScenario.node[76].veinsmobility posy ETV
vector 154 RSUExampleScenario.node[77].veinsmobility posx ETV
vector 155 RSUExampleScenario.node[77].veinsmobility posy ETV
vector 156 RSUExampleScenario.node[78].veinsmobility posx ETV
vector 157 RSUExampleScenario.node[78].veinsmobility posy ETV
vector 158 RSUExampleScenario.node[79].veinsmobility posx ETV
vector 159 RSUExampleScenario.node[79].veinsmobility posy ETV
vector 160 RSUExampleScenario.node[80].veinsmobility posx ETV
vector 161 RSUExampleScenario.node[80].veinsmobility posy ETV
vector 162 RSUExampleScenario.node[81].veinsmobility posx ETV
vector 163 RSUExampleScenario.node[81].veinsmobility posy ETV
vector 164 RSUExampleScenario.node[82].veinsmobility posx ETV
vector 165 RSUExampleScenario.node[82].veinsmobility posy ETV
vector 166 RSUExampleScenario.node[83].veinsmobility posx ETV
vector 167 RSUExampleScenario.node[83].veinsmobility posy ETV
vector 168 RSUExampleScenario.node[84].veinsmobility posx ETV
vector 169 RSUExampleScenario.node[84].veinsmobility posy ETV
vector 170 RSUExampleScenario.node[85].veinsmobility posx ETV
vector 171 RSUExampleScenario.node[85].veinsmobility posy ETV
vector 172 RSUExampleScenario.node[86].veinsmobility posx ETV
vector 173 RSUExampleScenario.node[86].veinsmobility posy ETV
vector 174 RSUExampleScenario.node[87].veinsmobility posx ETV
vector 175 RSUExampleScenario.node[87].veinsmobility posy ETV
vector 176 RSUExampleScenario.node[88].veinsmobility posx ETV
vector 177 RSUExampleScenario.node[88].veinsmobility posy ETV
vector 178 RSUExampleScenario.node[89].veinsmobility posx ETV
vector 179 RSUExampleScenario.node[89].veinsmobility posy ETV
vector 180 RSUExampleScenario.node[90].veinsmobility posx ETV
vector 181 RSUExampleScenario.node[90].veinsmobility posy ETV
vector 182 RSUExampleScenario.node[91].veinsmobility posx ETV
vector 183 RSUExampleScenario.node[91].veinsmobility posy ETV
vector 184 RSUExampleScenario.node[92].veinsmobility posx ETV
vector 185 RSUExampleScenario.node[92].veinsmobility posy ETV
vector 186 RSUExampleScenario.node[93].veinsmobility posx ETV
vector 187 RSUExampleScenario.node[93].veinsmobility posy ETV
vector 188 RSUExampleScenario.node[94].veinsmobility posx ETV
vector 189 RSUExampleScenario.node[94].veinsmobility posy ETV
vector 190 RSUExampleScenario.node[95].veinsmobility posx ETV
vector 191 RSUExampleScenario.node[95].veinsmobility posy ETV
vector 192 RSUExampleScenario.node[96].veinsmobility posx ETV
vector 193 RSUExampleScenario.node[96].veinsmobility posy ETV
vector 194 RSUExampleScenario.node[97].veinsmobility posx ETV
vector 195 RSUExampleScenario.node[97].veinsmobility posy ETV
vector 196 RSUExampleScenario.node[98].veinsmobility posx ETV
vector 197 RSUExampleScenario.node[98].veinsmobility posy ETV
vector 198 RSUExampleScenario.node[99].veinsmobility posx ETV
vector 199 RSUExampleScenario.node[99].veinsmobility posy ETV
vector 200 RSUExampleScenario.node[0].veinsmobility speed ETV
vector 201 RSUExampleScenario.node[1].veinsmobility speed ETV
vector 202 RSUExampleScenario.node[2].veinsmobility speed ETV
vector 203 RSUExampleScenario.node[3].veinsmobility speed ETV
vector 204 RSUExampleScenario.node[4].veinsmobility speed ETV
vector 205 RSUExampleScenario.node[5].veinsmobility speed ETV
vector 206 RSUExampleScenario.node[6].veinsmobility speed ETV
vector 207 RSUExampleScenario.node[7].veinsmobility speed ETV
vector 208 RSUExampleScenario.node[8].veinsmobility speed ETV
vector 209 RSUExampleScenario.node[9].veinsmobility speed ETV
vector 210 RSUExampleScenario.node[10].veinsmobility speed ETV
vector 211 RSUExampleScenario.node[11].veinsmobility speed ETV
vector 212 RSUExampleScenario.node[12].veinsmobility speed ETV
vector 213 RSUExampleScenario.node[13].veinsmobility speed ETV
vector 214 RSUExampleScenario.node[14].veinsmobility speed ETV
vector 215 RSUExampleScenario.node[15].veinsmobility speed ETV
vector 216 RSUExampleScenario.node[16].veinsmobility speed ETV
vector 217 RSUExampleScenario.node[17].veinsmobility speed ETV
vector 218 RSUExampleScenario.node[18].veinsmobility speed ETV
vector 219 RSUExampleScenario.node[19].veinsmobility speed ETV
vector 220 RSUExampleScenario.node[20].veinsmobility speed ETV
vector 221 RSUExampleScenario.node[21].veinsmobility speed ETV
vector 222 RSUExampleScenario.node[22].veinsmobility speed ETV
vector 223 RSUExampleScenario.node[23].veinsmobility speed ETV
vector 224 RSUExampleScenario.node[24].veinsmobility speed ETV
vector 225 RSUExampleScenario.node[25].veinsmobility speed ETV
vector 226 RSUExampleScenario.node[26].veinsmobility speed ETV
vector 227 RSUExampleScenario.node[27].veinsmobility speed ETV
vector 228 RSUExampleScenario.node[28].veinsmobility speed ETV
vector 229 RSUExampleScenario.node[29].veinsmobility speed ETV
vector 230 RSUExampleScenario.node[30].veinsmobility speed ETV
vector 231 RSUExampleScenario.node[31].veinsmobility speed ETV
vector 232 RSUExampleScenario.node[32].veinsmobility speed ETV
vector 233 RSUExampleScenario.node[33].veinsmobility speed ETV
vector 234 RSUExampleScenario.node[34].veinsmobility speed ETV
vector 235 RSUExampleScenario.node[35].veinsmobility speed ETV
vector 236 RSUExampleScenario.node[36].veinsmobility speed ETV
vector 237 RSUExampleScenario.node[37].veinsmobility speed ETV
vector 238 RSUExampleScenario.node[38].veinsmobility speed ETV
vector 239 RSUExampleScenario.node[39].veinsmobility speed ETV
vector 240 RSUExampleScenario.node[40].veinsmobility speed ETV
vector 241 RSUExampleScenario.node[41].veinsmobility speed ETV
vector 242 RSUExampleScenario.node[42].veinsmobility speed ETV
vector 243 RSUExampleScenario.node[43].veinsmobility speed ETV
vector 244 RSUExampleScenario.node[44].veinsmobility speed ETV
vector 245 RSUExampleScenario.node[45].veinsmobility speed ETV
vector 246 RSUExampleScenario.node[46].veinsmobility speed ETV
vector 247 RSUExampleScenario.node[47].veinsmobility speed ETV
vector 248 RSUExampleScenario.node[48].veinsmobility speed ETV
vector 249 RSUExampleScenario.node[49].veinsmobility speed ETV
vector 250 RSUExampleScenario.node[50].veinsmobility speed ETV
vector 251 RSUExampleScenario.node[51].veinsmobility speed ETV
vector 252 RSUExampleScenario.node[52].veinsmobility speed ETV
vector 253 RSUExampleScenario.node[53].veinsmobility speed ETV
vector 254 RSUExampleScenario.node[54].veinsmobility speed ETV
vector 255 RSUExampleScenario.node[55].veinsmobility speed ETV
vector 256 RSUExampleScenario.node[56].veinsmobility speed ETV
vector 257 RSUExampleScenario.node[57].veinsmobility speed ETV
vector 258 RSUExampleScenario.node[58].veinsmobility speed ETV
vector 259 RSUExampleScenario.node[59].veinsmobility speed ETV
vector 260 RSUExampleScenario.node[60].veinsmobility speed ETV
vector 261 RSUExampleScenario.node[61].veinsmobility speed ETV
vector 262 RSUExampleScenario.node[62].veinsmobility speed ETV
vector 263 RSUExampleScenario.node[63].veinsmobility speed ETV
vector 264 RSUExampleScenario.node[64].veinsmobility speed ETV
vector 265 RSUExampleScenario.node[65].veinsmobility speed ETV
vector 266 RSUExampleScenario.node[66].veinsmobility speed ETV
vector 267 RSUExampleScenario.node[67].veinsmobility speed ETV
vector 268 RSUExampleScenario.node[68].veinsmobility speed ETV
vector 269 RSUExampleScenario.node[69].veinsmobility speed ETV
vector 270 RSUExampleScenario.node[70].veinsmobility speed ETV
vector 271 RSUExampleScenario.node[71].veinsmobility speed ETV
vector 272 RSUExampleScenario.node[72].veinsmobility speed ETV
vector 273 RSUExampleScenario.node[73].veinsmobility speed ETV
vector 274 RSUExampleScenario.node[74].veinsmobility speed ETV
vector 275 RSUExampleScenario.node[75].veinsmobility speed ETV
vector 276 RSUExampleScenario.node[76].veinsmobility speed ETV
vector 277 RSUExampleScenario.node[77].veinsmobility speed ETV
vector 278 RSUExampleScenario.node[78].veinsmobility speed ETV
vector 279 RSUExampleScenario.node[79].veinsmobility speed ETV
vector 280 RSUExampleScenario.node[80].veinsmobility speed ETV
vector 281 RSUExampleScenario.node[81].veinsmobility speed ETV
vector 282 RSUExampleScenario.node[82].veinsmobility speed ETV
vector 283 RSUExampleScenario.node[83].veinsmobility speed ETV
vector 284 RSUExampleScenario.node[84].veinsmobility speed ETV
vector 285 RSUExampleScenario.node[85].veinsmobility speed ETV
vector 286 RSUExampleScenario.node[86].veinsmobility speed ETV
vector 287 RSUExampleScenario.node[87].veinsmobility speed ETV
vector 288 RSUExampleScenario.node[88].veinsmobility speed ETV
vector 289 RSUExampleScenario.node[89].veinsmobility speed ETV
vector 290 RSUExampleScenario.node[90].veinsmobility speed ETV
vector 291 RSUExampleScenario.node[91].veinsmobility speed ETV
vector 292 RSUExampleScenario.node[92].veinsmobility speed ETV
vector 293 RSUExampleScenario.node[93].veinsmobility speed ETV
vector 294 RSUExampleScenario.node[94].veinsmobility speed ETV
vector 295 RSUExampleScenario.node[95].veinsmobility speed ETV
vector 296 RSUExampleScenario.node[96].veinsmobility speed ETV
vector 297 RSUExampleScenario.node[97].veinsmobility speed ETV
vector 298 RSUExampleScenario.node[98].veinsmobility speed ETV
vector 299 RSUExampleScenario.node[99].veinsmobility speed ETV
vector 300 RSUExampleScenario.node[0].veinsmobility acceleration ETV
vector 301 RSUExampleScenario.node[0].veinsmobility co2emission ETV
vector 302 RSUExampleScenario.node[1].veinsmobility acceleration ETV
vector 303 RSUExampleScenario.node[1].veinsmobility co2emission ETV
vector 304 RSUExampleScenario.node[2].veinsmobility acceleration ETV
vector 305 RSUExampleScenario.node[2].veinsmobility co2emission ETV
vector 306 RSUExampleScenario.node[3].veinsmobility acceleration ETV
vector 307 RSUExampleScenario.node[3].veinsmobility co2emission ETV
vector 308 RSUExampleScenario.node[4].veinsmobility acceleration ETV
vector 309 RSUExampleScenario.node[4].veinsmobility co2emission ETV
vector 310 RSUExampleScenario.node[5].veinsmobility acceleration ETV
vector 311 RSUExampleScenario.node[5].veinsmobility co2emission ETV
vector 312 RSUExampleScenario.node[6].veinsmobility acceleration ETV
vector 313 RSUExampleScenario.node[6].veinsmobility co2emission ETV
vector 314 RSUExampleScenario.node[7].veinsmobility acceleration ETV
vector 315 RSUExampleScenario.node[7].veinsmobility co2emission ETV
vector 316 RSUExampleScenario.node[8].veinsmobility acceleration ETV
vector 317 RSUExampleScenario.node[8].veinsmobility co2emission ETV
vector 318 RSUExampleScenario.node[9].veinsmobility acceleration ETV
vector 319 RSUExampleScenario.node[9].veinsmobility co2emission ETV
vector 320 RSUExampleScenario.node[10].veinsmobility acceleration ETV
vector 321 RSUExampleScenario.node[10].veinsmobility co2emission ETV
vector 322 RSUExampleScenario.node[11].veinsmobility acceleration ETV
vector 323 RSUExampleScenario.node[11].veinsmobility co2emission ETV
vector 324 RSUExampleScenario.node[12].veinsmobility acceleration ETV
vector 325 RSUExampleScenario.node[12].veinsmobility co2emission ETV
vector 326 RSUExampleScenario.node[13].veinsmobility acceleration ETV
vector 327 RSUExampleScenario.node[13].veinsmobility co2emission ETV
vector 328 RSUExampleScenario.node[14].veinsmobility acceleration ETV
vector 329 RSUExampleScenario.node[14].veinsmobility co2emission ETV
vector 330 RSUExampleScenario.node[15].veinsmobility acceleration ETV
vector 331 RSUExampleScenario.node[15].veinsmobility co2emission ETV
vector 332 RSUExampleScenario.node[16].veinsmobility acceleration ETV
vector 333 RSUExampleScenario.node[16].veinsmobility co2emission ETV
vector 334 RSUExampleScenario.node[17].veinsmobility acceleration ETV
vector 335 RSUExampleScenario.node[17].veinsmobility co2emission ETV
vector 336 RSUExampleScenario.node[18].veinsmobility acceleration ETV
vector 337 RSUExampleScenario.node[18].veinsmobility co2emission ETV
vector 338 RSUExampleScenario.node[19].veinsmobility acceleration ETV
vector 339 RSUExampleScenario.node[19].veinsmobility co2emission ETV
vector 340 RSUExampleScenario.node[20].veinsmobility acceleration ETV
vector 341 RSUExampleScenario.node[20].veinsmobility co2emission ETV
vector 342 RSUExampleScenario.node[21].veinsmobility acceleration ETV
vector 343 RSUExampleScenario.node[21].veinsmobility co2emission ETV
vector 344 RSUExampleScenario.node[22].veinsmobility acceleration ETV
vector 345 RSUExampleScenario.node[22].veinsmobility co2emission ETV
vector 346 RSUExampleScenario.node[23].veinsmobility acceleration ETV
vector 347 RSUExampleScenario.node[23].veinsmobility co2emission ETV
vector 348 RSUExampleScenario.node[24].veinsmobility acceleration ETV
vector 349 RSUExampleScenario.node[24].veinsmobility co2emission ETV
vector 350 RSUExampleScenario.node[25].veinsmobility acceleration ETV
vector 351 RSUExampleScenario.node[25].veinsmobility co2emission ETV
vector 352 RSUExampleScenario.node[26].veinsmobility acceleration ETV
vector 353 RSUExampleScenario.node[26].veinsmobility co2emission ETV
vector 354 RSUExampleScenario.node[27].veinsmobility acceleration ETV
vector 355 RSUExampleScenario.node[27].veinsmobility co2emission ETV
vector 356 RSUExampleScenario.node[28].veinsmobility acceleration ETV
vector 357 RSUExampleScenario.node[28].veinsmobility co2emission ETV
vector 358 RSUExampleScenario.node[29].veinsmobility acceleration ETV
vector 359 RSUExampleScenario.node[29].veinsmobility co2emission ETV
vector 360 RSUExampleScenario.node[30].veinsmobility acceleration ETV
vector 361 RSUExampleScenario.node[30].veinsmobility co2emission ETV
vector 362 RSUExampleScenario.node[31].veinsmobility acceleration ETV
vector 363 RSUExampleScenario.node[31].veinsmobility co2emission ETV
vector 364 RSUExampleScenario.node[32].veinsmobility acceleration ETV
vector 365 RSUExampleScenario.node[32].veinsmobility co2emission ETV
vector 366 RSUExampleScenario.node[33].veinsmobility acceleration ETV
vector 367 RSUExampleScenario.node[33].veinsmobility co2emission ETV
vector 368 RSUExampleScenario.node[34].veinsmobility acceleration ETV
vector 369 RSUExampleScenario.node[34].veinsmobility co2emission ETV
vector 370 RSUExampleScenario.node[35].veinsmobility acceleration ETV
vector 371 RSUExampleScenario.node[35].veinsmobility co2emission ETV
vector 372 RSUExampleScenario.node[36].veinsmobility acceleration ETV
vector 373 RSUExampleScenario.node[36].veinsmobility co2emission ETV
vector 374 RSUExampleScenario.node[37].veinsmobility acceleration ETV
vector 375 RSUExampleScenario.node[37].veinsmobility co2emission ETV
vector 376 RSUExampleScenario.node[38].veinsmobility acceleration ETV
vector 377 RSUExampleScenario.node[38].veinsmobility co2emission ETV
vector 378 RSUExampleScenario.node[39].veinsmobility acceleration ETV
vector 379 RSUExampleScenario.node[39].veinsmobility co2emission ETV
vector 380 RSUExampleScenario.node[40].veinsmobility acceleration ETV
vector 381 RSUExampleScenario.node[40].veinsmobility co2emission ETV
vector 382 RSUExampleScenario.node[41].veinsmobility acceleration ETV
vector 383 RSUExampleScenario.node[41].veinsmobility co2emission ETV
vector 384 RSUExampleScenario.node[42].veinsmobility acceleration ETV
vector 385 RSUExampleScenario.node[42].veinsmobility co2emission ETV
vector 386 RSUExampleScenario.node[43].veinsmobility acceleration ETV
vector 387 RSUExampleScenario.node[43].veinsmobility co2emission ETV
vector 388 RSUExampleScenario.node[44].veinsmobility acceleration ETV
vector 389 RSUExampleScenario.node[44].veinsmobility co2emission ETV
vector 390 RSUExampleScenario.node[45].veinsmobility acceleration ETV
vector 391 RSUExampleScenario.node[45].veinsmobility co2emission ETV
vector 392 RSUExampleScenario.node[46].veinsmobility acceleration ETV
vector 393 RSUExampleScenario.node[46].veinsmobility co2emission ETV
vector 394 RSUExampleScenario.node[47].veinsmobility acceleration ETV
vector 395 RSUExampleScenario.node[47].veinsmobility co2emission ETV
vector 396 RSUExampleScenario.node[48].veinsmobility acceleration ETV
vector 397 RSUExampleScenario.node[48].veinsmobility co2emission ETV
vector 398 RSUExampleScenario.node[49].veinsmobility acceleration ETV
vector 399 RSUExampleScenario.node[49].veinsmobility co2emission ETV
vector 400 RSUExampleScenario.node[50].veinsmobility acceleration ETV
vector 401 RSUExampleScenario.node[50].veinsmobility co2emission ETV
vector 402 RSUExampleScenario.node[51].veinsmobility acceleration ETV
vector 403 RSUExampleScenario.node[51].veinsmobility co2emission ETV
vector 404 RSUExampleScenario.node[52].veinsmobility acceleration ETV
vector 405 RSUExampleScenario.node[52].veinsmobility co2emission ETV
vector 406 RSUExampleScenario.node[53].veinsmobility acceleration ETV
vector 407 RSUExampleScenario.node[53].veinsmobility co2emission ETV
vector 408 RSUExampleScenario.node[54].veinsmobility acceleration ETV
vector 409 RSUExampleScenario.node[54].veinsmobility co2emission ETV
vector 410 RSUExampleScenario.node[55].veinsmobility acceleration ETV
vector 411 RSUExampleScenario.node[55].veinsmobility co2emission ETV
vector 412 RSUExampleScenario.node[56].veinsmobility acceleration ETV
vector 413 RSUExampleScenario.node[56].veinsmobility co2emission ETV
vector 414 RSUExampleScenario.node[57].veinsmobility acceleration ETV
vector 415 RSUExampleScenario.node[57].veinsmobility co2emission ETV
vector 416 RSUExampleScenario.node[58].veinsmobility acceleration ETV
vector 417 RSUExampleScenario.node[58].veinsmobility co2emission ETV
vector 418 RSUExampleScenario.node[59].veinsmobility acceleration ETV
vector 419 RSUExampleScenario.node[59].veinsmobility co2emission ETV
vector 420 RSUExampleScenario.node[60].veinsmobility acceleration ETV
vector 421 RSUExampleScenario.node[60].veinsmobility co2emission ETV
vector 422 RSUExampleScenario.node[61].veinsmobility acceleration ETV
vector 423 RSUExampleScenario.node[61].veinsmobility co2emission ETV
vector 424 RSUExampleScenario.node[62].veinsmobility acceleration ETV
vector 425 RSUExampleScenario.node[62].veinsmobility co2emission ETV
vector 426 RSUExampleScenario.node[63].veinsmobility acceleration ETV
vector 427 RSUExampleScenario.node[63].veinsmobility co2emission ETV
vector 428 RSUExampleScenario.node[64].veinsmobility acceleration ETV
vector 429 RSUExampleScenario.node[64].veinsmobility co2emission ETV
vector 430 RSUExampleScenario.node[65].veinsmobility acceleration ETV
vector 431 RSUExampleScenario.node[65].veinsmobility co2emission ETV
vector 432 RSUExampleScenario.node[66].veinsmobility acceleration ETV
vector 433 RSUExampleScenario.node[66].veinsmobility co2emission ETV
vector 434 RSUExampleScenario.node[67].veinsmobility acceleration ETV
vector 435 RSUExampleScenario.node[67].veinsmobility co2emission ETV
vector 436 RSUExampleScenario.node[68].veinsmobility acceleration ETV
vector 437 RSUExampleScenario.node[68].veinsmobility co2emission ETV
vector 438 RSUExampleScenario.node[69].veinsmobility acceleration ETV
vector 439 RSUExampleScenario.node[69].veinsmobility co2emission ETV
vector 440 RSUExampleScenario.node[70].veinsmobility acceleration ETV
vector 441 RSUExampleScenario.node[70].veinsmobility co2emission ETV
vector 442 RSUExampleScenario.node[71].veinsmobility acceleration ETV
vector 443 RSUExampleScenario.node[71].veinsmobility co2emission ETV
vector 444 RSUExampleScenario.node[72].veinsmobility acceleration ETV
vector 445 RSUExampleScenario.node[72].veinsmobility co2emission ETV
vector 446 RSUExampleScenario.node[73].veinsmobility acceleration ETV
vector 447 RSUExampleScenario.node[73].veinsmobility co2emission ETV
vector 448 RSUExampleScenario.node[74].veinsmobility acceleration ETV
vector 449 RSUExampleScenario.node[74].veinsmobility co2emission ETV
vector 450 RSUExampleScenario.node[75].veinsmobility acceleration ETV
vector 451 RSUExampleScenario.node[75].veinsmobility co2emission ETV
vector 452 RSUExampleScenario.node[76].veinsmobility acceleration ETV
vector 453 RSUExampleScenario.node[76].veinsmobility co2emission ETV
vector 454 RSUExampleScenario.node[77].veinsmobility acceleration ETV
vector 455 RSUExampleScenario.node[77].veinsmobility co2emission ETV
vector 456 RSUExampleScenario.node[78].veinsmobility acceleration ETV
vector 457 RSUExampleScenario.node[78].veinsmobility co2emission ETV
vector 458 RSUExampleScenario.node[79].veinsmobility acceleration ETV
vector 459 RSUExampleScenario.node[79].veinsmobility co2emission ETV
vector 460 RSUExampleScenario.node[80].veinsmobility acceleration ETV
vector 461 RSUExampleScenario.node[80].veinsmobility co2emission ETV
vector 462 RSUExampleScenario.node[81].veinsmobility acceleration ETV
vector 463 RSUExampleScenario.node[81].veinsmobility co2emission ETV
vector 464 RSUExampleScenario.node[82].veinsmobility acceleration ETV
vector 465 RSUExampleScenario.node[82].veinsmobility co2emission ETV
vector 466 RSUExampleScenario.node[83].veinsmobility acceleration ETV
vector 467 RSUExampleScenario.node[83].veinsmobility co2emission ETV
vector 468 RSUExampleScenario.node[84].veinsmobility acceleration ETV
vector 469 RSUExampleScenario.node[84].veinsmobility co2emission ETV
vector 470 RSUExampleScenario.node[85].veinsmobility acceleration ETV
vector 471 RSUExampleScenario.node[85].veinsmobility co2emission ETV
vector 472 RSUExampleScenario.node[86].veinsmobility acceleration ETV
vector 473 RSUExampleScenario.node[86].veinsmobility co2emission ETV
vector 474 RSUExampleScenario.node[87].veinsmobility acceleration ETV
vector 475 RSUExampleScenario.node[87].veinsmobility co2emission ETV
vector 476 RSUExampleScenario.node[88].veinsmobility acceleration ETV
vector 477 RSUExampleScenario.node[88].veinsmobility co2emission ETV
vector 478 RSUExampleScenario.node[89].veinsmobility acceleration ETV
vector 479 RSUExampleScenario.node[89].veinsmobility co2emission ETV
vector 480 RSUExampleScenario.node[90].veinsmobility acceleration ETV
vector 481 RSUExampleScenario.node[90].veinsmobility co2emission ETV
vector 482 RSUExampleScenario.node[91].veinsmobility acceleration ETV
vector 483 RSUExampleScenario.node[91].veinsmobility co2emission ETV
vector 484 RSUExampleScenario.node[92].veinsmobility acceleration ETV
vector 485 RSUExampleScenario.node[92].veinsmobility co2emission ETV
vector 486 RSUExampleScenario.node[93].veinsmobility acceleration ETV
vector 487 RSUExampleScenario.node[93].veinsmobility co2emission ETV
vector 488 RSUExampleScenario.node[94].veinsmobility acceleration ETV
vector 489 RSUExampleScenario.node[94].veinsmobility co2emission ETV
vector 490 RSUExampleScenario.node[95].veinsmobility acceleration ETV
vector 491 RSUExampleScenario.node[95].veinsmobility co2emission ETV
vector 492 RSUExampleScenario.node[96].veinsmobility acceleration ETV
vector 493 RSUExampleScenario.node[96].veinsmobility co2emission ETV
vector 494 RSUExampleScenario.node[97].veinsmobility acceleration ETV
vector 495 RSUExampleScenario.node[97].veinsmobility co2emission ETV
vector 496 RSUExampleScenario.node[98].veinsmobility acceleration ETV
vector 497 RSUExampleScenario.node[98].veinsmobility co2emission ETV
vector 498 RSUExampleScenario.node[99].veinsmobility acceleration ETV
vector 499 RSUExampleScenario.node[99].veinsmobility co2emission ETV
301	52853	3	0.973
301	79274	4	2.321719606729
301	105665	5	3.5672413515654
301	132198	6	6.8800476921217
301	158494	7	8.5693882987949
301	184664	8	9.9923241147644
301	210710	9	2.8967226844573
301	236604	10	0.973
301	262412	11	0.973
301	288189	12	0.973
301	314173	13	5.8749889071523
301	340105	14	7.2151226182688
301	366137	15	7.7769285760563
301	392101	16	9.1626426837549
301	417973	17	3.5469113203651
301	443778	18	0.973
301	469342	19	0.973
301	494894	20	0.973
300	52853	3	-4.4838524506968
300	79274	4	0.38442475089803
300	105665	5	0.88587929034705
300	132198	6	1.9214050775184
300	158494	7	2.0906193881668
300	184664	8	2.1260370894917
300	210710	9	0.18832839181057
300	236604	10	-2.6406733975749
300	262412	11	-4.5
300	288189	12	-0.95
300	314173	13	1.9024683340453
300	340105	14	2.001071135106
300	366137	15	1.8449779109028
300	392101	16	1.9348430416337
300	417973	17	0.36526799598975
300	443778	18	-0.40015450590751
300	469342	19	-4.4981863236339
300	494894	20	-4.4449466170998
200	26342	2	12.333993277955
200	52853	3	7.8501408272578
200	79274	4	8.2345655781558
200	105665	5	9.1204448685029
200	132198	6	11.041849946021
200	158494	7	13.132469334188
200	184664	8	15.25850642368
200	210710	9	15.44683481549
200	236604	10	12.806161417916
200	262412	11	8.3061614179155
200	288189	12	7.3561614179155
200	314173	13	9.2586297519608
200	340105	14	11.259700887067
200	366137	15	13.10467879797
200	392101	16	15.039521839603
200	417973	17	15.404789835593
200	443778	18	15.004635329686
200	469342	19	10.506449006052
200	494894	20	6.0615023889519
1	2	1	558.16069863603
1	26342	2	558.16069863603
1	52853	3	543.95546604394
1	79274	4	534.08843622572
1	105665	5	527.09219867659
1	132198	6	523.52937846912
1	158494	7	523.4
1	184664	8	523.4
1	210710	9	523.4
1	236604	10	523.4
1	262412	11	523.4
1	288189	12	523.4
1	314173	13	523.4
1	340105	14	523.4
1	366137	15	523.4
1	392101	16	523.4
1	417973	17	523.4
1	443778	18	523.4
1	469342	19	523.4
1	494894	20	523.4
0	2	1	626.6
0	26342	2	626.6
0	52853	3	626.6
0	79274	4	626.6
0	105665	5	625.04460946599
0	132198	6	617.69513887002
0	158494	7	607.5641657255
0	184664	8	595.37580461208
0	210710	9	581.12368283371
0	236604	10	565.69313474252
0	262412	11	551.17965782379
0	288189	12	540.84849640587
0	314173	13	533.95233498796
0	340105	14	525.62432601487
0	366137	15	515.22446805627
0	392101	16	502.95874760675
0	417973	17	488.77201363024
0	443778	18	473.35836583391
0	469342	19	457.95974548965
0	494894	20	445.42974742469
303	52853	3	0.973
303	79274	4	6.0610246139548
303	105665	5	6.5263280291357
303	132198	6	7.7070366981784
303	158494	7	8.6843014707054
303	184664	8	2.1893219627515
303	210710	9	0.973
303	236604	10	0.973
303	262412	11	0.973
303	288189	12	0.973
303	314173	13	0.973
303	340105	14	2.7883838117507
303	366137	15	0.973
303	392101	16	4.0268210222978
303	417973	17	4.8696607459118
303	443778	18	6.766610594291
303	469342	19	6.8420389660632
303	494894	20	7.9271423839935
302	52853	3	-3.08
302	79274	4	2.1202762549859
302	105665	5	1.8735597380623
302	132198	6	1.9226202027337
302	158494	7	1.8970284768069
302	184664	8	0.029228633630554
302	210710	9	-2.956606791633
302	236604	10	-2.9290561891561
302	262412	11	-1.6406754353257
302	288189	12	-2.5647195058832
302	314173	13	-1.7748521939059
302	340105	14	1.4945051874053
302	366137	15	-0.29839523505359
302	392101	16	1.9089900575043
302	417973	17	1.8445014795521
302	443778	18	2.1768567906669
302	469342	19	1.8104965830687
302	494894	20	1.8450762560917
201	26342	2	9.7026693420322
201	52853	3	6.6226693420322
201	79274	4	8.7429455970182
201	105665	5	10.61650533508
201	132198	6	12.539125537814
201	158494	7	14.436154014621
201	184664	8	14.465382648252
201	210710	9	11.508775856619
201	236604	10	8.5797196674625
201	262412	11	6.9390442321369
201	288189	12	4.3743247262537
201	314173	13	2.5994725323478
201	340105	14	4.0939777197531
201	366137	15	3.7955824846995
201	392101	16	5.7045725422038
201	417973	17	7.5490740217559
201	443778	18	9.7259308124228
201	469342	19	11.536427395492
201	494894	20	13.381503651583
3	2	1	723.4
3	26342	2	723.4
3	52853	3	723.4
3	79274	4	723.4
3	105665	5	723.4
3	132198	6	723.4
3	158494	7	723.4
3	184664	8	723.4
3	210710	9	723.4
3	236604	10	723.4
3	262412	11	723.4
3	288189	12	723.4
3	314173	13	723.4
3	340105	14	723.4
3	366137	15	723.4
3	392101	16	723.4
3	417973	17	723.4
3	443778	18	723.4
3	469342	19	723.4
3	494894	20	723.4
2	2	1	555.26464373068
2	26342	2	555.26464373068
2	52853	3	543.53697438865
2	79274	4	536.09630504662
2	105665	5	528.24238231025
2	132198	6	518.46323650957
2	158494	7	506.84859076958
2	184664	8	493.20723499482
2	210710	9	478.72418635469
2	236604	10	465.69025747538
2	262412	11	455.89907274108
2	288189	12	448.24464788699
2	314173	13	442.76192131622
2	340105	14	439.5019919364
2	366137	15	436.41828979825
2	392101	16	432.72851803197
2	417973	17	427.89811162473
2	443778	18	421.17561903113
2	469342	19	412.39271144812
2	494894	20	401.637779749
305	52853	3	0.973
305	79274	4	2.4427522048694
305	105665	5	5.7665186977041
305	132198	6	7.3731997626855
305	158494	7	7.5642807513393
305	184664	8	6.5028357679892
305	210710	9	2.1375758174545
305	236604	10	0.973
305	262412	11	0.973
305	288189	12	6.5137628301218
305	314173	13	6.6883820617893
305	340105	14	8.0883574148302
305	366137	15	6.5546717104926
305	392101	16	2.1036456320429
305	417973	17	2.0645737416539
305	443778	18	0.973
305	469342	19	0.973
305	494894	20	0.973
304	52853	3	-1.4536894456809
304	79274	4	0.55465785174398
304	105665	5	1.9044429520424
304	132198	6	2.0867685036571
304	158494	7	1.8056044777413
304	184664	8	1.294414758416
304	210710	9	0.021092864857055
304	236604	10	-3.7102567409793
304	262412	11	-3.79
304	288189	12	2.2571443571383
304	314173	13	1.8798053453211
304	340105	14	1.9851832074462
304	366137	15	1.3147208288846
304	392101	16	0.012798102118539
304	417973	17	0.0013424371671871
304	443778	18	-1.49891248394
304	469342	19	-4.4658243292459
304	494894	20	-1.084692123387
202	26342	2	8.0404152822628
202	52853	3	6.5867258365818
202	79274	4	7.1413836883258
202	105665	5	9.0458266403682
202	132198	6	11.132595144025
202	158494	7	12.938199621767
202	184664	8	14.232614380183
202	210710	9	14.25370724504
202	236604	10	10.54345050406
202	262412	11	6.7534505040604
202	288189	12	9.0105948611987
202	314173	13	10.89040020652
202	340105	14	12.875583413966
202	366137	15	14.190304242851
202	392101	16	14.203102344969
202	417973	17	14.204444782136
202	443778	18	12.705532298196
202	469342	19	8.2397079689505
202	494894	20	7.1550158455635
5	2	1	804.5631312016
5	26342	2	804.5631312016
5	52853	3	814.62854648387
5	79274	4	821.00879376101
5	105665	5	823.3136084098
5	132198	6	823.4
5	158494	7	823.4
5	184664	8	823.4
5	210710	9	823.4
5	236604	10	823.4
5	262412	11	823.4
5	288189	12	823.4
5	314173	13	823.4
5	340105	14	823.4
5	366137	15	823.4
5	392101	16	823.4
5	417973	17	823.4
5	443778	18	823.4
5	469342	19	823.4
5	494894	20	823.4
4	2	1	723.4
4	26342	2	723.4
4	52853	3	723.4
4	79274	4	722.1418651148
4	105665	5	716.48419509261
4	132198	6	708.28998664632
4	158494	7	698.07039978531
4	184664	8	685.97796677052
4	210710	9	672.15563944488
4	236604	10	657.92121328892
4	262412	11	645.40212237023
4	288189	12	637.26267186617
4	314173	13	629.19933641162
4	340105	14	619.15018686765
4	366137	15	607.19590287475
4	392101	16	593.33916679633
4	417973	17	579.09197585675
4	443778	18	564.85642524523
4	469342	19	550.98241412968
4	494894	20	540.71770616073
307	52853	3	1.7055687146158
307	79274	4	6.0027897870112
307	105665	5	6.2815105229845
307	132198	6	7.6035969351382
307	158494	7	7.6140314880413
307	184664	8	2.0613773514253
307	210710	9	0.973
307	236604	10	0.973
307	262412	11	0.973
307	288189	12	1.3943582336484
307	314173	13	4.3109965474516
307	340105	14	5.6248408874224
307	366137	15	7.5214298143344
307	392101	16	8.1448660621965
307	417973	17	3.5006601178558
307	443778	18	2.3044249981387
307	469342	19	1.8952701607093
307	494894	20	2.2548334014673
306	52853	3	0.15315545232967
306	79274	4	2.0879857923673
306	105665	5	1.7909519665898
306	132198	6	1.9037528885971
306	158494	7	1.6386170742046
306	184664	8	0.0036902152723641
306	210710	9	-2.4384318420931
306	236604	10	-4.4564939391554
306	262412	11	-0.6711043790277
306	288189	12	-0.034715617343318
306	314173	13	1.4476255456195
306	340105	14	1.7055634922557
306	366137	15	2.0261226583202
306	392101	16	1.882367524358
306	417973	17	0.43376295979977
306	443778	18	0.076268693138847
306	469342	19	-0.043232276940254
306	494894	20	0.061023137175944
203	26342	2	6.518922039816
203	52853	3	6.6720774921456
203	79274	4	8.7600632845129
203	105665	5	10.551015251103
203	132198	6	12.4547681397
203	158494	7	14.093385213904
203	184664	8	14.097075429177
203	210710	9	11.658643587084
203	236604	10	7.2021496479282
203	262412	11	6.5310452689005
203	288189	12	6.4963296515572
203	314173	13	7.9439551971767
203	340105	14	9.6495186894324
203	366137	15	11.675641347753
203	392101	16	13.558008872111
203	417973	17	13.99177183191
203	443778	18	14.068040525049
203	469342	19	14.024808248109
203	494894	20	14.085831385285
7	2	1	637.1871947307
7	26342	2	637.1871947307
7	52853	3	630.27856386304
7	79274	4	626.91247374168
7	105665	5	626.6
7	132198	6	626.6
7	158494	7	626.6
7	184664	8	626.6
7	210710	9	626.6
7	236604	10	626.6
7	262412	11	626.6
7	288189	12	626.73867053779
7	314173	13	630.00053416667
7	340105	14	636.99155713049
7	366137	15	645.88936125893
7	392101	16	656.63267589304
7	417973	17	669.33084692715
7	443778	18	683.3105095704
7	469342	19	697.36041727945
7	494894	20	711.3987425861
6	2	1	26.6
6	26342	2	26.6
6	52853	3	27.176985854596
6	79274	4	31.820114988409
6	105665	5	39.576156622395
6	132198	6	49.354117258893
6	158494	7	61.011003354912
6	184664	8	74.481489218956
6	210710	9	88.528516511583
6	236604	10	101.81581559556
6	262412	11	111.03953071388
6	288189	12	117.84594054733
6	314173	13	122.52730903524
6	340105	14	123.4
6	366137	15	123.4
6	392101	16	123.4
6	417973	17	123.4
6	443778	18	123.4
6	469342	19	123.4
6	494894	20	123.4
309	52853	3	0.973
309	79274	4	6.197104084838
309	105665	5	6.8140823936671
309	132198	6	6.2211071677251
309	158494	7	1.921861455681
309	184664	8	1.7454744483611
309	210710	9	2.0162786786911
309	236604	10	1.6931575808854
309	262412	11	0.973
309	288189	12	0.973
309	314173	13	0.973
309	340105	14	1.5378405645553
309	366137	15	4.3319356345165
309	392101	16	5.8259930661696
309	417973	17	6.8381678181901
309	443778	18	4.8728976735668
309	469342	19	2.196509203526
309	494894	20	1.8096220925762
308	52853	3	-3.7498555825052
308	79274	4	2.1959734725207
308	105665	5	1.9729503356479
308	132198	6	1.4866971083034
308	158494	7	0.019452722577844
308	184664	8	-0.039549194560387
308	210710	9	0.051206266549416
308	236604	10	-0.057269830682781
308	262412	11	-1.0251002642953
308	288189	12	-4.4922099045363
308	314173	13	-0.97624911917666
308	340105	14	0.096472637953703
308	366137	15	1.6004146082746
308	392101	16	1.8876699599065
308	417973	17	1.8901793290907
308	443778	18	1.0286541592452
308	469342	19	0.11005666191923
308	494894	20	-0.020330252989661
204	26342	2	10.257703172998
204	52853	3	6.5078475904931
204	79274	4	8.7038210630139
204	105665	5	10.676771398662
204	132198	6	12.163468506965
204	158494	7	12.182921229543
204	184664	8	12.143372034983
204	210710	9	12.194578301532
204	236604	10	12.137308470849
204	262412	11	11.112208206554
204	288189	12	6.6199983020177
204	314173	13	5.643749182841
204	340105	14	5.7402218207947
204	366137	15	7.3406364290693
204	392101	16	9.2283063889758
204	417973	17	11.118485718067
204	443778	18	12.147139877312
204	469342	19	12.257196539231
204	494894	20	12.236866286241
9	2	1	523.4
9	26342	2	523.4
9	52853	3	523.4
9	79274	4	523.4
9	105665	5	523.4
9	132198	6	523.4
9	158494	7	523.4
9	184664	8	523.4
9	210710	9	523.4
9	236604	10	523.4
9	262412	11	523.4
9	288189	12	523.4
9	314173	13	523.4
9	340105	14	523.22288749408
9	366137	15	520.41741492445
9	392101	16	514.38237565793
9	417973	17	505.95147772668
9	443778	18	495.69700477502
9	469342	19	483.78757637071
9	494894	20	471.57991095222
8	2	1	856.48271458132
8	26342	2	856.48271458132
8	52853	3	844.81868955404
8	79274	4	836.9288564053
8	105665	5	829.09904517089
8	132198	6	819.26349619574
8	158494	7	807.54988531329
8	184664	8	795.3508078976
8	210710	9	783.15010883773
8	236604	10	770.95946416458
8	262412	11	758.76104459009
8	288189	12	746.74901355649
8	314173	13	738.1081105598
8	340105	14	731.79433843191
8	366137	15	727.64187506527
8	392101	16	726.611762269
8	417973	17	726.6
8	443778	18	726.6
8	469342	19	726.6
8	494894	20	726.6
311	52853	3	1.9767615637
311	79274	4	2.4380747557453
311	105665	5	2.2445055219382
311	132198	6	0.973
311	158494	7	0.973
311	184664	8	0.973
311	210710	9	0.973
311	236604	10	3.8021267128135
311	262412	11	6.7404788928788
311	288189	12	7.6524265334934
311	314173	13	8.7467813172344
311	340105	14	8.2526305141246
311	366137	15	0.973
311	392101	16	0.973
311	417973	17	0.973
311	443778	18	3.3565188486901
311	469342	19	6.810637969464
311	494894	20	7.7472233553647
310	52853	3	-0.07276208548341
310	79274	4	0.045546801760795
310	105665	5	-0.0044625120167616
310	132198	6	-2.7903779438714
310	158494	7	-4.4999229944567
310	184664	8	-0.95
310	210710	9	-0.26010886329587
310	236604	10	1.072771091382
310	262412	11	1.9704840925895
310	288189	12	1.9167993058939
310	314173	13	1.9218632871495
310	340105	14	1.5599446713838
310	366137	15	-2.1656615644747
310	392101	16	-4.4659859614354
310	417973	17	-1.7989551961795
310	443778	18	0.88178332131589
310	469342	19	2.0257939440524
310	494894	20	1.9630151310982
205	26342	2	16.04427920457
205	52853	3	15.971517119087
205	79274	4	16.017063920848
205	105665	5	16.012601408831
205	132198	6	13.222223464959
205	158494	7	8.7223004705026
205	184664	8	7.7723004705026
205	210710	9	7.5121916072068
205	236604	10	8.5849626985888
205	262412	11	10.555446791178
205	288189	12	12.472246097072
205	314173	13	14.394109384222
205	340105	14	15.954054055605
205	366137	15	13.788392491131
205	392101	16	9.3224065296955
205	417973	17	7.523451333516
205	443778	18	8.4052346548319
205	469342	19	10.431028598884
205	494894	20	12.394043729983
11	2	1	818.75547404336
11	26342	2	818.75547404336
11	52853	3	834.75273032102
11	79274	4	850.73849242763
11	105665	5	866.73428635627
11	132198	6	882.69782338464
11	158494	7	897.67474226138
11	184664	8	908.42201963022
11	210710	9	915.73432010072
11	236604	10	922.11825139934
11	262412	11	923.4
11	288189	12	923.4
11	314173	13	923.4
11	340105	14	923.4
11	366137	15	923.4
11	392101	16	923.4
11	417973	17	923.4
11	443778	18	922.28773977954
11	469342	19	915.73089605385
11	494894	20	906.20775633851
10	2	1	823.4
10	26342	2	823.4
10	52853	3	823.4
10	79274	4	823.4
10	105665	5	823.4
10	132198	6	823.4
10	158494	7	823.4
10	184664	8	823.4
10	210710	9	823.4
10	236604	10	820.91748692215
10	262412	11	813.54986601585
10	288189	12	803.84546128023
10	314173	13	792.25614456379
10	340105	14	778.69600076592
10	366137	15	763.27162975516
10	392101	16	747.93062857107
10	417973	17	736.58623765427
10	443778	18	729.13135996072
10	469342	19	726.65961905718
10	494894	20	726.6
313	52853	3	0.973
313	79274	4	0.973
313	105665	5	1.4586336448754
313	132198	6	5.2263418327161
313	158494	7	6.0892362207609
313	184664	8	7.0891827262234
313	210710	9	6.0906595568449
313	236604	10	2.0889529306028
313	262412	11	1.8699949547019
313	288189	12	0.973
313	314173	13	0.973
313	340105	14	0.973
313	366137	15	2.4369758487799
313	392101	16	5.4035615945331
313	417973	17	6.5528295519899
313	443778	18	7.8511068495106
313	469342	19	3.8139106891302
313	494894	20	2.1487250425567
312	52853	3	-4.4787474707205
312	79274	4	-2.4268292066961
312	105665	5	0.022138725363184
312	132198	6	1.9052567459201
312	158494	7	1.8549832026637
312	184664	8	1.8612504503503
312	210710	9	1.3178476588865
312	236604	10	0.044235798136796
312	262412	11	-0.024439171908888
312	288189	12	-4.1396356470176
312	314173	13	-1.66
312	340105	14	-1.2036991245768
312	366137	15	0.60743465062697
312	392101	16	1.8590919652791
312	417973	17	1.9182971571712
312	443778	18	1.9885357811511
312	469342	19	0.59521936234031
312	494894	20	0.063037684152368
206	26342	2	12.996820048548
206	52853	3	8.5180725778272
206	79274	4	6.0912433711311
206	105665	5	6.1133820964943
206	132198	6	8.0186388424143
206	158494	7	9.873622045078
206	184664	8	11.734872495428
206	210710	9	13.052720154315
206	236604	10	13.096955952452
206	262412	11	13.072516780543
206	288189	12	8.9328811335252
206	314173	13	7.2728811335252
206	340105	14	6.0691820089483
206	366137	15	6.6766166595753
206	392101	16	8.5357086248544
206	417973	17	10.454005782026
206	443778	18	12.442541563177
206	469342	19	13.037760925517
206	494894	20	13.100798609669
13	2	1	560.63850884995
13	26342	2	560.63850884995
13	52853	3	547.57320231895
13	79274	4	537.0468541153
13	105665	5	530.50329926384
13	132198	6	527.04776335358
13	158494	7	526.6
13	184664	8	526.6
13	210710	9	526.6
13	236604	10	526.6
13	262412	11	526.6
13	288189	12	526.6
13	314173	13	526.6
13	340105	14	526.6
13	366137	15	527.8641583934
13	392101	16	533.00778592518
13	417973	17	540.70041483341
13	443778	18	550.33420522332
13	469342	19	561.88712377035
13	494894	20	574.8674631696
12	2	1	26.6
12	26342	2	26.6
12	52853	3	26.6
12	79274	4	26.6
12	105665	5	27.079186607012
12	132198	6	31.137156817032
12	158494	7	38.216001264466
12	184664	8	47.280533787851
12	210710	9	58.173348252248
12	236604	10	70.897297194004
12	262412	11	83.96530192872
12	288189	12	97.049489285398
12	314173	13	108.00737041892
12	340105	14	115.17525155245
12	366137	15	121.01464332624
12	392101	16	123.24946136331
12	417973	17	123.4
12	443778	18	123.4
12	469342	19	123.4
12	494894	20	123.4
315	52853	3	1.7885175817167
315	79274	4	1.7527996321964
315	105665	5	1.7905471274701
315	132198	6	1.6131741726052
315	158494	7	1.889069084155
315	184664	8	1.8375774472606
315	210710	9	1.5241181615316
315	236604	10	0.973
315	262412	11	0.973
315	288189	12	0.973
315	314173	13	1.4288614501392
315	340105	14	4.7264275738231
315	366137	15	5.8301511167759
315	392101	16	6.1440049691254
315	417973	17	1.439548087524
315	443778	18	1.8475621499486
315	469342	19	1.8817660801229
315	494894	20	1.6174671094094
314	52853	3	0.025128049545456
314	79274	4	0.010692503689787
314	105665	5	0.024741044710391
314	132198	6	-0.043823690912687
314	158494	7	0.062777491544839
314	184664	8	0.041126516275108
314	210710	9	-0.079561045754234
314	236604	10	-0.22631195282288
314	262412	11	-4.4366383008659
314	288189	12	-0.9860353708826
314	314173	13	0.058166446057148
314	340105	14	1.9566435210081
314	366137	15	1.9763616057835
314	392101	16	1.7268756826078
314	417973	17	-0.11199840128887
314	443778	18	0.047684109292458
314	469342	19	0.058982744337991
314	494894	20	-0.04333912855247
207	26342	2	10.492197517782
207	52853	3	10.517325567327
207	79274	4	10.528018071017
207	105665	5	10.552759115727
207	132198	6	10.508935424814
207	158494	7	10.571712916359
207	184664	8	10.612839432634
207	210710	9	10.53327838688
207	236604	10	10.306966434057
207	262412	11	5.8703281331914
207	288189	12	4.8842927623088
207	314173	13	4.942459208366
207	340105	14	6.899102729374
207	366137	15	8.8754643351575
207	392101	16	10.602340017765
207	417973	17	10.490341616476
207	443778	18	10.538025725769
207	469342	19	10.597008470107
207	494894	20	10.553669341554
15	2	1	412.95326696733
15	26342	2	412.95326696733
15	52853	3	423.51241707489
15	79274	4	434.06915486634
15	105665	5	444.64146072978
15	132198	6	455.20648399277
15	158494	7	465.75809345142
15	184664	8	476.30287980006
15	210710	9	486.86193453081
15	236604	10	497.42037301177
15	262412	11	507.92598767502
15	288189	12	515.78767689933
15	314173	13	520.51192999687
15	340105	14	522.94091574703
15	366137	15	523.4
15	392101	16	523.4
15	417973	17	523.4
15	443778	18	523.4
15	469342	19	523.4
15	494894	20	523.4
14	2	1	723.4
14	26342	2	723.4
14	52853	3	723.4
14	79274	4	723.4
14	105665	5	723.4
14	132198	6	723.4
14	158494	7	723.4
14	184664	8	723.4
14	210710	9	723.4
14	236604	10	723.4
14	262412	11	723.4
14	288189	12	723.4
14	314173	13	722.48229289621
14	340105	14	718.90643317691
14	366137	15	713.00264604702
14	392101	16	705.04145959462
14	417973	17	695.10820250026
14	443778	18	684.54936938721
14	469342	19	673.9968983072
14	494894	20	663.42769082971
317	52853	3	0.973
317	79274	4	0.973
317	105665	5	0.973
317	132198	6	1.8809640677116
317	158494	7	3.7805815204601
317	184664	8	4.676563630714
317	210710	9	5.4895785844213
317	236604	10	6.0875194560132
317	262412	11	7.8314805121495
317	288189	12	8.894417120178
317	314173	13	2.3251472089193
317	340105	14	0.973
317	366137	15	0.973
317	392101	16	6.0692991876513
317	417973	17	6.9313858017918
317	443778	18	8.1237596604716
317	469342	19	8.6406194787987
317	494894	20	2.0686644889413
316	52853	3	-3.0482901495239
316	79274	4	-4.5
316	105665	5	-4.5
316	132198	6	0.77322430313971
316	158494	7	1.9224854688602
316	184664	8	1.8741092177411
316	210710	9	1.8150421078759
316	236604	10	1.7069062132458
316	262412	11	1.9612995716277
316	288189	12	1.9469502765406
316	314173	13	0.064725763100819
316	340105	14	-4.2365808556144
316	366137	15	-3.79
316	392101	16	2.1418451131252
316	417973	17	2.0147156770295
316	443778	18	2.025775852697
316	469342	19	1.8613182278358
316	494894	20	-0.0086003282642917
208	26342	2	14.54773595203
208	52853	3	11.499445802507
208	79274	4	6.9994458025066
208	105665	5	2.4994458025066
208	132198	6	3.2726701056463
208	158494	7	5.1951555745065
208	184664	8	7.0692647922476
208	210710	9	8.8843069001235
208	236604	10	10.591213113369
208	262412	11	12.552512684997
208	288189	12	14.499462961538
208	314173	13	14.564188724638
208	340105	14	10.327607869024
208	366137	15	6.5376078690241
208	392101	16	8.6794529821492
208	417973	17	10.694168659179
208	443778	18	12.719944511876
208	469342	19	14.581262739711
208	494894	20	14.572662411447
17	2	1	269.64957497529
17	26342	2	269.64957497529
17	52853	3	255.07495183034
17	79274	4	241.74957564293
17	105665	5	232.73216138135
17	132198	6	228.39501635302
17	158494	7	226.37808122929
17	184664	8	224.19222571203
17	210710	9	223.43162337701
17	236604	10	223.4
17	262412	11	223.4
17	288189	12	223.4
17	314173	13	223.4
17	340105	14	223.4
17	366137	15	223.4
17	392101	16	223.4
17	417973	17	223.4
17	443778	18	223.4
17	469342	19	223.4
17	494894	20	223.4
16	2	1	626.6
16	26342	2	626.6
16	52853	3	626.6
16	79274	4	626.6
16	105665	5	626.52314897749
16	132198	6	625.65866748548
16	158494	7	624.47921047183
16	184664	8	621.05621521272
16	210710	9	614.94251985134
16	236604	10	606.88534283423
16	262412	11	597.07310275166
16	288189	12	585.44737349665
16	314173	13	571.7966469457
16	340105	14	557.22974766712
16	366137	15	544.89628452103
16	392101	16	536.97267665201
16	417973	17	529.17483729638
16	443778	18	519.38813478991
16	469342	19	507.50738903282
16	494894	20	493.66198142843
319	52853	3	0.973
319	79274	4	4.5336163335951
319	105665	5	5.8747094280606
319	132198	6	6.9225347876524
319	158494	7	7.3064336891183
319	184664	8	3.0643647272568
319	210710	9	0.973
319	236604	10	0.973
319	262412	11	0.973
319	288189	12	2.6247324976551
319	314173	13	0.973
319	340105	14	7.1594385986575
319	366137	15	7.1343758686753
319	392101	16	8.3779798309358
319	417973	17	9.3758977381042
319	443778	18	10.121704360218
319	469342	19	0.973
319	494894	20	0.973
318	52853	3	-4.4919295571153
318	79274	4	1.6919621796496
318	105665	5	1.8892140837911
318	132198	6	1.9019465865703
318	158494	7	1.7227943832448
318	184664	8	0.34278525112197
318	210710	9	-1.3916134997216
318	236604	10	-3.2796576680138
318	262412	11	-0.98809057714888
318	288189	12	0.54392569368781
318	314173	13	-0.53417997296476
318	340105	14	2.2915446250117
318	366137	15	1.8667095800419
318	392101	16	1.9263248825306
318	417973	17	1.9022700682492
318	443778	18	1.8265873750486
318	469342	19	-3.5784183909754
318	494894	20	-4.4744549483158
209	26342	2	10.224925126171
209	52853	3	5.7329955690558
209	79274	4	7.4249577487054
209	105665	5	9.3141718324965
209	132198	6	11.216118419067
209	158494	7	12.938912802312
209	184664	8	13.281698053433
209	210710	9	11.890084553712
209	236604	10	8.610426885698
209	262412	11	7.6223363085492
209	288189	12	8.166262002237
209	314173	13	7.6320820292722
209	340105	14	9.9236266542839
209	366137	15	11.790336234326
209	392101	16	13.716661116856
209	417973	17	15.618931185106
209	443778	18	17.445518560154
209	469342	19	13.867100169179
209	494894	20	9.392645220863
19	2	1	598.99657052121
19	26342	2	598.99657052121
19	52853	3	611.24649564738
19	79274	4	618.97686019666
19	105665	5	624.55996665837
19	132198	6	626.54747487715
19	158494	7	626.6
19	184664	8	626.6
19	210710	9	626.6
19	236604	10	626.6
19	262412	11	626.6
19	288189	12	626.6
19	314173	13	626.6
19	340105	14	626.6
19	366137	15	626.6
19	392101	16	626.6
19	417973	17	626.6
19	443778	18	626.6
19	469342	19	626.6
19	494894	20	626.6
18	2	1	23.4
18	26342	2	23.4
18	52853	3	23.4
18	79274	4	23.65947875574
18	105665	5	26.550441114869
18	132198	6	34.468877522038
18	158494	7	44.807108879569
18	184664	8	56.923120747035
18	210710	9	70.029714907718
18	236604	10	82.936906835855
18	262412	11	93.016266270365
18	288189	12	101.0177533805
18	314173	13	108.66249169064
18	340105	14	115.83372146253
18	366137	15	124.71762001362
18	392101	16	135.7070131369
18	417973	17	148.49352484351
18	443778	18	163.28736819718
18	469342	19	179.8575799494
18	494894	20	195.69441620114
321	52853	3	0.973
321	79274	4	6.1024651116725
321	105665	5	4.6891544790128
321	132198	6	7.5724639890099
321	158494	7	8.476101363766
321	184664	8	8.0013992964244
321	210710	9	0.973
321	236604	10	0.973
321	262412	11	0.973
321	288189	12	2.5847076891185
321	314173	13	2.1378414140704
321	340105	14	6.0560221973492
321	366137	15	6.9147128680635
321	392101	16	8.7508456709357
321	417973	17	10.02788979785
321	443778	18	2.0630036665048
321	469342	19	2.3739825154851
321	494894	20	2.1021654857722
320	52853	3	-3.0549629096201
320	79274	4	2.0879134342284
320	105665	5	1.2224984025047
320	132198	6	1.9571704764944
320	158494	7	1.9047863203124
320	184664	8	1.5443566894014
320	210710	9	-0.58599761506434
320	236604	10	-4.4989129956998
320	262412	11	-3.7798360443195
320	288189	12	0.61593061443531
320	314173	13	0.33496724196942
320	340105	14	1.9114067871659
320	366137	15	1.859016488248
320	392101	16	2.078769586517
320	417973	17	2.08182810953
320	443778	18	-0.038323161248117
320	469342	19	0.04324946343433
320	494894	20	-0.028300480197649
210	26342	2	9.9012963503176
210	52853	3	6.8463334406975
210	79274	4	8.9342468749259
210	105665	5	10.156745277431
210	132198	6	12.113915753925
210	158494	7	14.018702074237
210	184664	8	15.563058763639
210	210710	9	14.977061148574
210	236604	10	10.478148152875
210	262412	11	6.6983121085551
210	288189	12	7.3142427229904
210	314173	13	7.6492099649598
210	340105	14	9.5606167521257
210	366137	15	11.419633240374
210	392101	16	13.498402826891
210	417973	17	15.580230936421
210	443778	18	15.541907775173
210	469342	19	15.585157238607
210	494894	20	15.556856758409
21	2	1	449.97618184224
21	26342	2	449.97618184224
21	52853	3	438.06963126706
21	79274	4	430.4457761241
21	105665	5	424.50634194364
21	132198	6	423.4
21	158494	7	423.4
21	184664	8	423.4
21	210710	9	423.4
21	236604	10	423.4
21	262412	11	423.4
21	288189	12	423.4
21	314173	13	422.7163909498
21	340105	14	417.14859596357
21	366137	15	408.48725365241
21	392101	16	397.90646103397
21	417973	17	385.36897548757
21	443778	18	370.70538119652
21	469342	19	355.14091779145
21	494894	20	339.56703956138
20	2	1	926.6
20	26342	2	926.6
20	52853	3	926.6
20	79274	4	926.27887289269
20	105665	5	921.88641426002
20	132198	6	912.71068686942
20	158494	7	901.42266848035
20	184664	8	888.27001867832
20	210710	9	873.28376537709
20	236604	10	857.8050994373
20	262412	11	845.30271218744
20	288189	12	837.22348205672
20	314173	13	830.03228225613
20	340105	14	826.77165650252
20	366137	15	826.6
20	392101	16	826.6
20	417973	17	826.6
20	443778	18	826.6
20	469342	19	826.6
20	494894	20	826.6
323	52853	3	1.8854467681755
323	79274	4	1.805435944684
323	105665	5	2.2778047055336
323	132198	6	1.9073369687926
323	158494	7	1.6802721842873
323	184664	8	2.2714351598451
323	210710	9	1.6275432179
323	236604	10	2.1919321986401
323	262412	11	1.6463758724393
323	288189	12	2.0224274315342
323	314173	13	1.8767134803169
323	340105	14	2.1328583923063
323	366137	15	2.0152463660869
323	392101	16	1.9658503806852
323	417973	17	1.860293468204
323	443778	18	1.8316286398763
323	469342	19	0.973
323	494894	20	0.973
322	52853	3	-0.019093054453842
322	79274	4	-0.043349852317478
322	105665	5	0.10329468343407
322	132198	6	-0.01350051102694
322	158494	7	-0.083410257806536
322	184664	8	0.10111961441347
322	210710	9	-0.10023431012407
322	236604	10	0.076825116111431
322	262412	11	-0.093839637737256
322	288189	12	0.025332654395607
322	314173	13	-0.020482709372882
322	340105	14	0.059149988507851
322	366137	15	0.021130076800473
322	392101	16	0.0053079829737541
322	417973	17	-0.02736825959524
322	443778	18	-0.035491399839522
322	469342	19	-2.8420193411141
322	494894	20	-4.1546376766544
211	26342	2	13.076314537266
211	52853	3	13.057221482813
211	79274	4	13.013871630495
211	105665	5	13.117166313929
211	132198	6	13.103665802902
211	158494	7	13.020255545096
211	184664	8	13.121375159509
211	210710	9	13.021140849385
211	236604	10	13.097965965497
211	262412	11	13.004126327759
211	288189	12	13.029458982155
211	314173	13	13.008976272782
211	340105	14	13.06812626129
211	366137	15	13.08925633809
211	392101	16	13.094564321064
211	417973	17	13.067196061469
211	443778	18	13.031704661629
211	469342	19	10.189685320515
211	494894	20	6.0350476438608
23	2	1	175.61728649263
23	26342	2	175.61728649263
23	52853	3	188.6599626901
23	79274	4	201.72246095574
23	105665	5	214.75483106102
23	132198	6	227.82590617305
23	158494	7	240.90652796203
23	184664	8	253.9640907499
23	210710	9	267.02644810298
23	236604	10	280.08413675094
23	262412	11	293.13483939721
23	288189	12	306.20216071775
23	314173	13	319.24998017614
23	340105	14	332.29206041239
23	366137	15	345.36751533578
23	392101	16	358.43821481246
23	417973	17	371.51062732287
23	443778	18	384.57089892737
23	469342	19	397.61564263138
23	494894	20	409.60292147403
22	2	1	623.4
22	26342	2	623.4
22	52853	3	623.4
22	79274	4	623.4
22	105665	5	623.4
22	132198	6	623.4
22	158494	7	623.4
22	184664	8	623.4
22	210710	9	623.4
22	236604	10	623.4
22	262412	11	623.4
22	288189	12	623.4
22	314173	13	623.4
22	340105	14	623.4
22	366137	15	623.4
22	392101	16	623.4
22	417973	17	623.4
22	443778	18	623.4
22	469342	19	623.4
22	494894	20	623.4
325	52853	3	0.973
325	79274	4	0.973
325	105665	5	0.973
325	132198	6	5.1573533249764
325	158494	7	6.2652386954517
325	184664	8	6.4796753009792
325	210710	9	7.8441535585296
325	236604	10	2.0872070937468
325	262412	11	1.5891547091127
325	288189	12	0.973
325	314173	13	2.4033683373614
325	340105	14	0.973
325	366137	15	3.7512331677756
325	392101	16	6.1452235112553
325	417973	17	8.4434570090196
325	443778	18	3.3457836924329
325	469342	19	1.9483020305198
325	494894	20	1.9995439890576
324	52853	3	-2.5270429115314
324	79274	4	-4.4815812535899
324	105665	5	-1.0866752127674
324	132198	6	2.1805427931808
324	158494	7	2.1150367148546
324	184664	8	1.7963675047853
324	210710	9	1.915398265915
324	236604	10	0.051162228009547
324	262412	11	-0.10698129233026
324	288189	12	-1.9734122233495
324	314173	13	0.23943646223326
324	340105	14	-3.7303385164324
324	366137	15	1.0798354583653
324	392101	16	1.8093631880986
324	417973	17	2.1966339768586
324	443778	18	0.45849461313798
324	469342	19	0.0070184263680133
324	494894	20	0.02282204004703
212	26342	2	12.913754891628
212	52853	3	10.386711980097
212	79274	4	5.9051307265067
212	105665	5	4.8184555137393
212	132198	6	6.9989983069201
212	158494	7	9.1140350217747
212	184664	8	10.91040252656
212	210710	9	12.825800792475
212	236604	10	12.876963020485
212	262412	11	12.769981728154
212	288189	12	10.796569504805
212	314173	13	11.036005967038
212	340105	14	7.3056674506056
212	366137	15	8.3855029089709
212	392101	16	10.19486609707
212	417973	17	12.391500073928
212	443778	18	12.849994687066
212	469342	19	12.857013113434
212	494894	20	12.879835153481
25	2	1	523.4
25	26342	2	523.4
25	52853	3	523.4
25	79274	4	523.4
25	105665	5	523.4
25	132198	6	523.4
25	158494	7	523.4
25	184664	8	523.4
25	210710	9	523.4
25	236604	10	523.4
25	262412	11	523.4
25	288189	12	523.4
25	314173	13	523.4
25	340105	14	523.4
25	366137	15	523.4
25	392101	16	523.4
25	417973	17	523.4
25	443778	18	523.4
25	469342	19	523.4
25	494894	20	523.4
24	2	1	669.99574968724
24	26342	2	669.99574968724
24	52853	3	657.11932256072
24	79274	4	645.07175014116
24	105665	5	637.15635441178
24	132198	6	632.67583668039
24	158494	7	626.61582672476
24	184664	8	618.49768477289
24	210710	9	608.32239085996
24	236604	10	596.32112183631
24	262412	11	583.42706555436
24	288189	12	570.56271968151
24	314173	13	559.22687129918
24	340105	14	548.39753494203
24	366137	15	539.12327744871
24	392101	16	531.74974075683
24	417973	17	522.39854067666
24	443778	18	510.97267537586
24	469342	19	498.13102205728
24	494894	20	485.25310938777
327	52853	3	2.0392372331907
327	79274	4	0.973
327	105665	5	0.973
327	132198	6	5.449981113331
327	158494	7	6.7746058465621
327	184664	8	7.5238221990296
327	210710	9	5.4449215118381
327	236604	10	2.1635223234835
327	262412	11	2.0542477414058
327	288189	12	0.973
327	314173	13	0.973
327	340105	14	0.973
327	366137	15	2.0125473248224
327	392101	16	2.1752631738549
327	417973	17	6.5415942505666
327	443778	18	7.4463795562672
327	469342	19	7.1559202161904
327	494894	20	1.9877967309065
326	52853	3	0.011371987930033
326	79274	4	-4.3376272227979
326	105665	5	-2.3528359254285
326	132198	6	1.8241844962281
326	158494	7	1.9489842029265
326	184664	8	1.8559337780136
326	210710	9	1.049137613139
326	236604	10	0.04798277744092
326	262412	11	0.014362747541163
326	288189	12	-0.73609631443572
326	314173	13	-4.4527495322292
326	340105	14	-0.95
326	366137	15	0.25649350985814
326	392101	16	0.31884060963988
326	417973	17	1.989728924334
326	443778	18	1.9281886799051
326	469342	19	1.5719595192895
326	494894	20	-0.0034714269661329
213	26342	2	13.623065896139
213	52853	3	13.634437884069
213	79274	4	9.2968106612715
213	105665	5	6.9439747358431
213	132198	6	8.7681592320712
213	158494	7	10.717143434998
213	184664	8	12.573077213011
213	210710	9	13.62221482615
213	236604	10	13.670197603591
213	262412	11	13.684560351132
213	288189	12	12.948464036697
213	314173	13	8.4957145044675
213	340105	14	7.5457145044675
213	366137	15	7.8022080143256
213	392101	16	8.1210486239655
213	417973	17	10.1107775483
213	443778	18	12.038966228205
213	469342	19	13.610925747494
213	494894	20	13.607454320528
27	2	1	626.6
27	26342	2	626.6
27	52853	3	626.6
27	79274	4	626.6
27	105665	5	626.6
27	132198	6	626.6
27	158494	7	626.6
27	184664	8	626.6
27	210710	9	626.6
27	236604	10	626.6
27	262412	11	626.6
27	288189	12	626.6
27	314173	13	626.6
27	340105	14	626.6
27	366137	15	626.6
27	392101	16	624.82947107748
27	417973	17	618.20170128822
27	443778	18	608.96493749315
27	469342	19	597.83395111276
27	494894	20	584.85568483513
26	2	1	568.69944952918
26	26342	2	568.69944952918
26	52853	3	582.34764430096
26	79274	4	595.98591894375
26	105665	5	607.27661861514
26	132198	6	614.53346273626
26	158494	7	622.57853916013
26	184664	8	632.36831948424
26	210710	9	644.08287674806
26	236604	10	657.49182063406
26	262412	11	671.13033224551
26	288189	12	684.77087281037
26	314173	13	698.32430180599
26	340105	14	708.84501631045
26	366137	15	715.93073081492
26	392101	16	723.29795953052
26	417973	17	726.4260532462
26	443778	18	726.6
26	469342	19	726.6
26	494894	20	726.6
329	52853	3	2.4857082006029
329	79274	4	2.0199230791235
329	105665	5	1.7620353068552
329	132198	6	2.1884422682491
329	158494	7	0.973
329	184664	8	0.973
329	210710	9	0.973
329	236604	10	3.2684220172393
329	262412	11	6.3647823310775
329	288189	12	7.3409894688602
329	314173	13	9.5285594834018
329	340105	14	3.8112465590524
329	366137	15	0.973
329	392101	16	0.973
329	417973	17	0.973
329	443778	18	3.6642365357395
329	469342	19	1.5760608126299
329	494894	20	5.7349610367391
328	52853	3	0.11667113770964
328	79274	4	-0.017025358260144
328	105665	5	-0.089256308067124
328	132198	6	0.033410204336979
328	158494	7	-2.18288846947
328	184664	8	-4.5
328	210710	9	-1.0100657671341
328	236604	10	0.95714753563982
328	262412	11	2.030003151698
328	288189	12	1.9769790868461
328	314173	13	2.2485993715818
328	340105	14	0.50190453120957
328	366137	15	-0.43242996046545
328	392101	16	-4.4043908197151
328	417973	17	-2.3391456603036
328	443778	18	1.0606998271617
328	469342	19	0.008352193301544
328	494894	20	1.6931431797938
214	26342	2	14.285681225962
214	52853	3	14.402352363672
214	79274	4	14.385327005411
214	105665	5	14.296070697344
214	132198	6	14.329480901681
214	158494	7	12.146592432211
214	184664	8	7.6465924322113
214	210710	9	6.6365266650772
214	236604	10	7.5936742007171
214	262412	11	9.6236773524151
214	288189	12	11.600656439261
214	314173	13	13.849255810843
214	340105	14	14.351160342053
214	366137	15	13.918730381587
214	392101	16	9.514339561872
214	417973	17	7.1751939015685
214	443778	18	8.2358937287302
214	469342	19	8.2442459220317
214	494894	20	9.9373891018256
29	2	1	529.80810413291
29	26342	2	529.80810413291
29	52853	3	515.48021552462
29	79274	4	501.11713872586
29	105665	5	486.76686058078
29	132198	6	472.4117362925
29	158494	7	458.07301949665
29	184664	8	444.38098436469
29	210710	9	434.70939193248
29	236604	10	428.61670380492
29	262412	11	426.65762314309
29	288189	12	426.6
29	314173	13	426.6
29	340105	14	426.6
29	366137	15	426.6
29	392101	16	426.6
29	417973	17	426.6
29	443778	18	426.6
29	469342	19	425.43217330167
29	494894	20	419.16902944994
28	2	1	826.6
28	26342	2	826.6
28	52853	3	826.6
28	79274	4	826.6
28	105665	5	826.6
28	132198	6	826.6
28	158494	7	826.6
28	184664	8	826.6
28	210710	9	826.6
28	236604	10	828.2577842054
28	262412	11	834.3252709278
28	288189	12	843.02687758127
28	314173	13	853.74562210585
28	340105	14	866.62235127346
28	366137	15	880.94629882589
28	392101	16	895.25775052805
28	417973	17	906.79484656041
28	443778	18	914.2786987261
28	469342	19	922.08445077589
28	494894	20	926.27822261802
331	52853	3	2.0823864404414
331	79274	4	2.1067470669455
331	105665	5	0.973
331	132198	6	0.973
331	158494	7	6.1182324228751
331	184664	8	6.0212863596107
331	210710	9	8.2544834279217
331	236604	10	8.6399384004498
331	262412	11	2.7399481305016
331	288189	12	0.973
331	314173	13	0.973
331	340105	14	0.973
331	366137	15	0.973
331	392101	16	0.973
331	417973	17	2.0192436406727
331	443778	18	2.9680696885635
331	469342	19	4.1447041203898
331	494894	20	2.4773127786355
330	52853	3	-0.00011754196137304
330	79274	4	0.00668464523973
330	105665	5	-3.8391650826228
330	132198	6	-4.4880410958992
330	158494	7	2.258813859513
330	184664	8	1.7718436514726
330	210710	9	2.1547690212424
330	236604	10	1.9215152480453
330	262412	11	0.19009859123529
330	288189	12	-2.1967270123932
330	314173	13	-3.2556981475917
330	340105	14	-2.85684679978
330	366137	15	-2.4262376475976
330	392101	16	-0.82606808750735
330	417973	17	0.82503682901302
330	443778	18	1.3336680200307
330	469342	19	1.6715483432283
330	494894	20	0.5643676489545
215	26342	2	14.421830691764
215	52853	3	14.421713149802
215	79274	4	14.428397795042
215	105665	5	10.589232712419
215	132198	6	6.1011916165199
215	158494	7	8.3600054760329
215	184664	8	10.131849127505
215	210710	9	12.286618148748
215	236604	10	14.208133396793
215	262412	11	14.398231988028
215	288189	12	12.201504975635
215	314173	13	8.9458068280436
215	340105	14	6.0889600282636
215	366137	15	3.662722380666
215	392101	16	2.8366542931586
215	417973	17	3.6616911221716
215	443778	18	4.9953591422023
215	469342	19	6.6669074854306
215	494894	20	7.2312751343851
31	2	1	723.4
31	26342	2	723.4
31	52853	3	723.4
31	79274	4	723.4
31	105665	5	723.4
31	132198	6	723.4
31	158494	7	723.4
31	184664	8	723.4
31	210710	9	723.4
31	236604	10	723.4
31	262412	11	723.4
31	288189	12	723.4
31	314173	13	723.4
31	340105	14	723.4
31	366137	15	723.4
31	392101	16	723.4
31	417973	17	723.4
31	443778	18	723.4
31	469342	19	723.4
31	494894	20	722.32286516591
30	2	1	401.2490354311
30	26342	2	401.2490354311
30	52853	3	386.85267587919
30	79274	4	372.46232213812
30	105665	5	358.0840768038
30	132198	6	345.53674335166
30	158494	7	337.41533529678
30	184664	8	329.99648922911
30	210710	9	320.65305066447
30	236604	10	309.32584151975
30	262412	11	295.97800640922
30	288189	12	281.57723364452
30	314173	13	268.04106249656
30	340105	14	257.66174672579
30	366137	15	250.3780968209
30	392101	16	245.70741967888
30	417973	17	242.70863985272
30	443778	18	239.48563931547
30	469342	19	234.91670153207
30	494894	20	229.16465240364
333	52853	3	0.973
333	79274	4	1.8829540191464
333	105665	5	2.8433277080078
333	132198	6	3.9240619027188
333	158494	7	5.3088898842878
333	184664	8	5.4628748466216
333	210710	9	7.2148407490994
333	236604	10	9.0978547424169
333	262412	11	6.2802177442467
333	288189	12	0.973
333	314173	13	1.3555785241454
333	340105	14	5.848955672684
333	366137	15	8.9603605660743
333	392101	16	1.8981582687501
333	417973	17	2.185617655933
333	443778	18	2.1538782722305
333	469342	19	1.8882492028271
333	494894	20	0.973
332	52853	3	0
332	79274	4	1.6930802424654
332	105665	5	1.8341337009966
[...]
484	132198	6	-0.10258180915844
484	158494	7	0.12077708582627
484	184664	8	-0.079759882767686
484	210710	9	0.05341633707285
484	236604	10	-0.085570173827
484	262412	11	-0.0035315733542678
484	288189	12	0.061027180827223
484	314173	13	-0.035546542264054
484	340105	14	-0.03195205887314
484	366137	15	0.00086569508537693
484	392101	16	0.087928011920303
484	417973	17	-0.087907605215442
484	443778	18	0.0025509505835366
484	469342	19	0.0039308442897159
484	494894	20	0.064242986741011
292	26342	2	14.544757452245
292	52853	3	14.470429588469
292	79274	4	14.592377747699
292	105665	5	14.576690323577
292	132198	6	14.474108514419
292	158494	7	14.594885600245
292	184664	8	14.515125717478
292	210710	9	14.56854205455
292	236604	10	14.482971880723
292	262412	11	14.479440307369
292	288189	12	14.540467488196
292	314173	13	14.504920945932
292	340105	14	14.472968887059
292	366137	15	14.473834582145
292	392101	16	14.561762594065
292	417973	17	14.473854988849
292	443778	18	14.476405939433
292	469342	19	14.480336783723
292	494894	20	14.544579770464
185	2	1	926.6
185	26342	2	926.6
185	52853	3	926.6
185	79274	4	926.6
185	105665	5	926.6
185	132198	6	926.6
185	158494	7	926.6
185	184664	8	926.6
185	210710	9	926.6
185	236604	10	926.6
185	262412	11	926.6
185	288189	12	926.6
185	314173	13	926.6
185	340105	14	926.6
185	366137	15	926.6
185	392101	16	926.6
185	417973	17	926.6
185	443778	18	926.6
185	469342	19	926.6
185	494894	20	926.6
184	2	1	462.04273845892
184	26342	2	462.04273845892
184	52853	3	476.57216307229
184	79274	4	491.0949008212
184	105665	5	505.61666549624
184	132198	6	520.15356676616
184	158494	7	534.66348073835
184	184664	8	549.22101229934
184	210710	9	563.72708169172
184	236604	10	578.27817503227
184	262412	11	592.80844584831
184	288189	12	607.35620766723
184	314173	13	621.8972831593
184	340105	14	636.40989624542
184	366137	15	650.93353138123
184	392101	16	665.43744216349
184	417973	17	679.97126973703
184	443778	18	694.51409758435
184	469342	19	709.04367630153
184	494894	20	723.56596185818
487	52853	3	0.973
487	79274	4	0.973
487	105665	5	4.9422041455566
487	132198	6	6.7877827207429
487	158494	7	7.1552627428741
487	184664	8	8.9906155813547
487	210710	9	4.6080893351547
487	236604	10	2.2452887868597
487	262412	11	0.973
487	288189	12	0.973
487	314173	13	0.973
487	340105	14	0.973
487	366137	15	3.3515180995657
487	392101	16	6.000504818135
487	417973	17	7.3894224563873
487	443778	18	8.624612399912
487	469342	19	6.1362876799448
487	494894	20	2.5668834576558
486	52853	3	-3.6990823213568
486	79274	4	-4.4938459954139
486	105665	5	1.6745471514761
486	132198	6	2.0262526688748
486	158494	7	1.8007410427928
486	184664	8	2.0231628867076
486	210710	9	0.68878495952643
486	236604	10	0.029873475558125
486	262412	11	-1.6428617284684
486	288189	12	-4.4999410541275
486	314173	13	-1.66
486	340105	14	-0.22130665443181
486	366137	15	0.95858357672812
486	392101	16	1.8518716073898
486	417973	17	1.9756898523495
486	443778	18	2.0043039333448
486	469342	19	1.1228838487061
486	494894	20	0.11893014163477
293	26342	2	14.88078420796
293	52853	3	11.181701886603
293	79274	4	6.6878558911895
293	105665	5	8.3624030426657
293	132198	6	10.38865571154
293	158494	7	12.189396754333
293	184664	8	14.212559641041
293	210710	9	14.901344600567
293	236604	10	14.931218076125
293	262412	11	13.288356347657
293	288189	12	8.7884152935295
293	314173	13	7.1284152935295
293	340105	14	6.9071086390977
293	366137	15	7.8656922158258
293	392101	16	9.7175638232156
293	417973	17	11.693253675565
293	443778	18	13.69755760891
293	469342	19	14.820441457616
293	494894	20	14.939371599251
187	2	1	623.4
187	26342	2	623.4
187	52853	3	623.4
187	79274	4	623.4
187	105665	5	623.4
187	132198	6	623.4
187	158494	7	623.4
187	184664	8	623.4
187	210710	9	623.4
187	236604	10	623.4
187	262412	11	623.4
187	288189	12	623.4
187	314173	13	623.4
187	340105	14	623.4
187	366137	15	621.55569301245
187	392101	16	615.08830802077
187	417973	17	606.15925899562
187	443778	18	595.43237674333
187	469342	19	582.59861483475
187	494894	20	567.9948766131
186	2	1	774.9857541304
186	26342	2	774.9857541304
186	52853	3	760.10971651805
186	79274	4	746.94925338657
186	105665	5	738.23639749538
186	132198	6	730.88063269509
186	158494	7	721.4563933887
186	184664	8	710.04481540544
186	210710	9	696.70388554732
186	236604	10	681.90261806778
186	262412	11	667.01627767835
186	288189	12	652.51465116398
186	314173	13	641.70124765963
186	340105	14	634.6778323661
186	366137	15	628.44041732132
186	392101	16	626.63679436384
186	417973	17	626.6
186	443778	18	626.6
186	469342	19	626.6
186	494894	20	626.6
489	52853	3	1.2331079876803
489	79274	4	0.973
489	105665	5	0.973
489	132198	6	3.3587436888338
489	158494	7	6.1917980839621
489	184664	8	7.0999854708012
489	210710	9	7.9396582830805
489	236604	10	9.6895787031966
489	262412	11	4.5042208856922
489	288189	12	0.973
489	314173	13	0.973
489	340105	14	0.973
489	366137	15	6.448332573443
489	392101	16	6.9036417530814
489	417973	17	8.3731846855175
489	443778	18	8.6705842272524
489	469342	19	6.0539144695325
489	494894	20	0.973
488	52853	3	-0.26532740216707
488	79274	4	-4.4625102531842
488	105665	5	-4.4802439063367
488	132198	6	0.95150963025533
488	158494	7	1.9053945275978
488	184664	8	1.8696544444608
488	210710	9	1.8234866356896
488	236604	10	1.9991769701662
488	262412	11	0.57471167319332
488	288189	12	-2.5994146562
488	314173	13	-4.5
488	340105	14	-1.6188251634229
488	366137	15	2.0995718558482
488	392101	16	1.8672183374478
488	417973	17	1.9896817435091
488	443778	18	1.7853189864987
488	469342	19	0.97411907248556
488	494894	20	-1.3363707118153
294	26342	2	16.192248801556
294	52853	3	15.926921399389
294	79274	4	11.464411146205
294	105665	5	6.9841672398685
294	132198	6	7.9356768701238
294	158494	7	9.8410713977216
294	184664	8	11.710725842182
294	210710	9	13.534212477872
294	236604	10	15.533389448038
294	262412	11	16.108101121231
294	288189	12	13.508686465031
294	314173	13	9.0086864650314
294	340105	14	7.3898613016086
294	366137	15	9.4894331574568
294	392101	16	11.356651494905
294	417973	17	13.346333238414
294	443778	18	15.131652224912
294	469342	19	16.105771297398
294	494894	20	14.769400585583
189	2	1	526.6
189	26342	2	526.6
189	52853	3	526.6
189	79274	4	526.6
189	105665	5	526.6
189	132198	6	526.6
189	158494	7	526.6
189	184664	8	526.6
189	210710	9	526.6
189	236604	10	526.6
189	262412	11	526.6
189	288189	12	526.6
189	314173	13	526.6
189	340105	14	526.6
189	366137	15	526.6
189	392101	16	526.6
189	417973	17	526.6
189	443778	18	526.6
189	469342	19	526.6
189	494894	20	526.6
188	2	1	356.54844125572
188	26342	2	356.54844125572
188	52853	3	372.70487617334
188	79274	4	388.84691407967
188	105665	5	402.33575775901
188	132198	6	411.34082295956
188	158494	7	418.37442871265
188	184664	8	427.30981233363
188	210710	9	438.10011067989
188	236604	10	450.8085862478
188	262412	11	465.45788562232
188	288189	12	481.53730599075
188	314173	13	496.77590152686
188	340105	14	507.80958799189
188	366137	15	515.08251856417
188	392101	16	523.69189860919
188	417973	17	534.20942759718
188	443778	18	546.68586832976
188	469342	19	561.00000075575
188	494894	20	576.96017292919
491	52853	3	0.973
491	79274	4	4.6202738341255
491	105665	5	0.973
491	132198	6	5.4506545348761
491	158494	7	1.6370121181887
491	184664	8	7.1990947839178
491	210710	9	7.7258719003945
491	236604	10	8.9436269002324
491	262412	11	5.4961408870443
491	288189	12	0.973
491	314173	13	0.973
491	340105	14	0.973
491	366137	15	1.8602046377079
491	392101	16	5.8230587198127
491	417973	17	6.837460025437
491	443778	18	7.9853428277739
491	469342	19	9.0674734443919
491	494894	20	1.6699876051522
490	52853	3	-1.7607874074484
490	79274	4	1.3448128692234
490	105665	5	-2.1497176427174
490	132198	6	1.7977759469832
490	158494	7	0.015322931886185
490	184664	8	2.0600067937816
490	210710	9	1.8760686204466
490	236604	10	1.9198736006906
490	262412	11	0.87121636308278
490	288189	12	-0.7249905382676
490	314173	13	-4.4200928231445
490	340105	14	-3.2614600430965
490	366137	15	0.19857114278013
490	392101	16	1.8724500410468
490	417973	17	1.8801144553185
490	443778	18	1.9148992615496
490	469342	19	1.9152043999941
490	494894	20	-0.12863980962042
295	26342	2	9.6483389815731
295	52853	3	7.8875515741248
295	79274	4	9.2323644433481
295	105665	5	7.0826468006307
295	132198	6	8.8804227476139
295	158494	7	8.8957456795001
295	184664	8	10.955752473282
295	210710	9	12.831821093728
295	236604	10	14.751694694419
295	262412	11	15.622911057502
295	288189	12	14.897920519234
295	314173	13	10.47782769609
295	340105	14	7.2163676529932
295	366137	15	7.4149387957733
295	392101	16	9.2873888368201
295	417973	17	11.167503292139
295	443778	18	13.082402553688
295	469342	19	14.997606953682
295	494894	20	14.868967144062
191	2	1	423.4
191	26342	2	423.4
191	52853	3	423.4
191	79274	4	423.4
191	105665	5	423.4
191	132198	6	423.4
191	158494	7	424.69002841133
191	184664	8	431.78199877213
191	210710	9	441.77800240785
191	236604	10	453.75174060109
191	262412	11	467.68177081394
191	288189	12	483.10668096602
191	314173	13	498.58416660326
191	340105	14	511.06584769986
191	366137	15	519.26563855594
191	392101	16	523.11070352766
191	417973	17	523.4
191	443778	18	523.4
191	469342	19	523.4
191	494894	20	523.4
190	2	1	670.97362741546
190	26342	2	670.97362741546
190	52853	3	659.86501557633
190	79274	4	651.64026860742
190	105665	5	643.03904399525
190	132198	6	635.6530263017
190	158494	7	627.65622298057
190	184664	8	623.57613665099
190	210710	9	623.4
190	236604	10	623.4
190	262412	11	623.4
190	288189	12	623.4
190	314173	13	623.4
190	340105	14	623.4
190	366137	15	623.02195526726
190	392101	16	618.01057956771
190	417973	17	609.59734014074
190	443778	18	599.24608194184
190	469342	19	586.98899056639
190	494894	20	572.88575899656
493	52853	3	0.973
493	79274	4	0.973
493	105665	5	0.973
493	132198	6	2.6977382425584
493	158494	7	1.9932107366029
493	184664	8	7.2156860374505
493	210710	9	7.8676839709136
493	236604	10	7.0428823772463
493	262412	11	2.1554113093992
493	288189	12	1.9631238683798
493	314173	13	0.973
493	340105	14	0.973
493	366137	15	3.5050269402456
493	392101	16	1.8207546792658
493	417973	17	6.1828126238113
493	443778	18	7.5335635358778
493	469342	19	8.4991612761769
493	494894	20	2.2892633789207
492	52853	3	-1.0412279715498
492	79274	4	-4.4868249230252
492	105665	5	-0.95
492	132198	6	0.58820387991842
492	158494	7	0.21421597264474
492	184664	8	2.1736752529838
492	210710	9	1.9880204787781
492	236604	10	1.4882343195676
492	262412	11	0.034640011067967
492	288189	12	-0.021735977453645
492	314173	13	-2.3775756624118
492	340105	14	-4.4973862823279
492	366137	15	1.0013000508291
492	392101	16	0.13202697482891
492	417973	17	1.8485697244154
492	443778	18	1.957969153421
492	469342	19	1.9211799669568
492	494894	20	0.072988417851199
296	26342	2	13.988251928433
296	52853	3	12.947023956883
296	79274	4	8.4601990338579
296	105665	5	7.5101990338579
296	132198	6	8.0984029137764
296	158494	7	8.3126188864211
296	184664	8	10.486294139405
296	210710	9	12.474314618183
296	236604	10	13.962548937751
296	262412	11	13.997188948819
296	288189	12	13.975452971365
296	314173	13	11.597877308953
296	340105	14	7.1004910266251
296	366137	15	8.1017910774542
296	392101	16	8.2338180522832
296	417973	17	10.082387776699
296	443778	18	12.04035693012
296	469342	19	13.961536897076
296	494894	20	14.034525314928
193	2	1	226.6
193	26342	2	226.6
193	52853	3	226.6
193	79274	4	226.6
193	105665	5	226.6
193	132198	6	226.6
193	158494	7	224.69235112781
193	184664	8	217.76867673928
193	210710	9	208.30272068785
193	236604	10	196.70172998006
193	262412	11	183.22880166628
193	288189	12	169.22450271291
193	314173	13	155.21775329837
193	340105	14	141.99662173793
193	366137	15	132.87765531865
193	392101	16	126.36625696885
193	417973	17	123.52073758918
193	443778	18	123.4
193	469342	19	123.4
193	494894	20	123.4
192	2	1	870.56750316287
192	26342	2	870.56750316287
192	52853	3	884.57719065954
192	79274	4	898.41244508886
192	105665	5	908.88859576935
192	132198	6	915.93879480321
192	158494	7	923.42371090991
192	184664	8	926.4680205115
192	210710	9	926.6
192	236604	10	926.6
192	262412	11	926.6
192	288189	12	926.6
192	314173	13	926.6
192	340105	14	926.6
192	366137	15	926.5387163514
192	392101	16	924.46658787309
192	417973	17	917.45136969404
192	443778	18	908.17661580667
192	469342	19	897.01222241315
192	494894	20	883.90107544984
495	52853	3	0.973
495	79274	4	0.973
495	105665	5	0.973
495	132198	6	0.973
495	158494	7	3.5547455339704
495	184664	8	2.4827410553828
495	210710	9	6.3754694681159
495	236604	10	7.0810045374772
495	262412	11	8.0699242850506
495	288189	12	9.7317081597245
495	314173	13	4.1091817300896
495	340105	14	2.3880680428278
495	366137	15	1.9571846138261
495	392101	16	2.1742122856984
495	417973	17	2.5124836433347
495	443778	18	2.235286804622
495	469342	19	2.0226489267536
495	494894	20	2.5468052384879
494	52853	3	-2.551348705628
494	79274	4	-0.52788009204069
494	105665	5	-2.7920307546288
494	132198	6	-3.7720632425818
494	158494	7	1.1178023922885
494	184664	8	0.48229914450087
494	210710	9	1.9464787631924
494	236604	10	1.8389649162162
494	262412	11	1.8395122039481
494	288189	12	1.9891815201007
494	314173	13	0.47113811487527
494	340105	14	0.027707305869551
494	366137	15	-0.080798348835668
494	392101	16	-0.02410403656075
494	417973	17	0.061159705743194
494	443778	18	-0.0098829469061457
494	469342	19	-0.06294552979525
494	494894	20	0.070089761980345
297	26342	2	16.096149468276
297	52853	3	13.544800762648
297	79274	4	13.016920670607
297	105665	5	10.224889915978
297	132198	6	6.4528266733966
297	158494	7	7.5706290656851
297	184664	8	8.0529282101859
297	210710	9	9.9994069733784
297	236604	10	11.838371889595
297	262412	11	13.677884093543
297	288189	12	15.667065613643
297	314173	13	16.138203728519
297	340105	14	16.165911034388
297	366137	15	16.085112685553
297	392101	16	16.061008648992
297	417973	17	16.122168354735
297	443778	18	16.112285407829
297	469342	19	16.049339878034
297	494894	20	16.119429640014
195	2	1	326.6
195	26342	2	326.6
195	52853	3	326.6
195	79274	4	326.6
195	105665	5	326.6
195	132198	6	326.6
195	158494	7	326.6
195	184664	8	327.4152104963
195	210710	9	333.47765628419
195	236604	10	342.58854084514
195	262412	11	353.60308990665
195	288189	12	366.48147274538
195	314173	13	381.26158230751
195	340105	14	397.3511333211
195	366137	15	413.47700128177
195	392101	16	429.58534775532
195	417973	17	445.69814634128
195	443778	18	461.80330216559
195	469342	19	477.9087883986
195	494894	20	494.01231630945
194	2	1	149.34072969662
194	26342	2	149.34072969662
194	52853	3	165.44457875131
194	79274	4	179.91322733023
194	105665	5	193.16072160507
194	132198	6	205.26602951686
194	158494	7	213.10126883877
194	184664	8	220.27317689961
194	210710	9	223.31216218836
194	236604	10	223.4
194	262412	11	223.4
194	288189	12	223.4
194	314173	13	223.4
194	340105	14	223.4
194	366137	15	223.4
194	392101	16	223.4
194	417973	17	223.4
194	443778	18	223.4
194	469342	19	223.4
194	494894	20	223.4
497	52853	3	1.9628988600022
497	79274	4	1.6886590622061
497	105665	5	1.9059149253861
497	132198	6	1.7652503694294
497	158494	7	1.8489271130702
497	184664	8	0.973
497	210710	9	0.973
497	236604	10	0.973
497	262412	11	2.9479693340522
497	288189	12	4.2218634172786
497	314173	13	4.9380498721615
497	340105	14	5.990174275607
497	366137	15	7.4409318000229
497	392101	16	2.5237339078705
497	417973	17	1.6728429555489
497	443778	18	1.8599025877642
497	469342	19	1.8542888099217
497	494894	20	2.1431359505912
496	52853	3	0.032816926401573
496	79274	4	-0.058939663069323
496	105665	5	0.014832027687225
496	132198	6	-0.032281959403772
496	158494	7	-0.0035396673460486
496	184664	8	-1.5360911386089
496	210710	9	-4.4605280866241
496	236604	10	-2.827732992433
496	262412	11	1.4111358809215
496	288189	12	1.775274251136
496	314173	13	1.7121775104548
496	340105	14	1.7895695732627
496	366137	15	1.946833569915
496	392101	16	0.22567430413579
496	417973	17	-0.063139768466353
496	443778	18	0.0010051253694119
496	469342	19	-0.00089351696195195
496	494894	20	0.094571704911068
298	26342	2	12.168584765703
298	52853	3	12.201401692104
298	79274	4	12.142462029035
298	105665	5	12.157294056722
298	132198	6	12.125012097318
298	158494	7	12.121472429972
298	184664	8	10.585381291363
298	210710	9	6.1248532047394
298	236604	10	3.2971202123064
298	262412	11	4.7082560932279
298	288189	12	6.4835303443639
298	314173	13	8.1957078548186
298	340105	14	9.9852774280813
298	366137	15	11.932110997996
298	392101	16	12.157785302132
298	417973	17	12.094645533666
298	443778	18	12.095650659035
298	469342	19	12.094757142073
298	494894	20	12.189328846984
197	2	1	124.72551369166
197	26342	2	124.72551369166
197	52853	3	112.59999271223
197	79274	4	100.4566195917
197	105665	5	88.327146307927
197	132198	6	76.187990542204
197	158494	7	64.043052572007
197	184664	8	51.911893052876
197	210710	9	40.134531181732
197	236604	10	31.98862516833
197	262412	11	28.120773931049
197	288189	12	26.94845600669
197	314173	13	26.6
197	340105	14	26.6
197	366137	15	26.6
197	392101	16	26.6
197	417973	17	26.6
197	443778	18	26.6
197	469342	19	26.6
197	494894	20	26.6
196	2	1	26.6
196	26342	2	26.6
196	52853	3	26.6
196	79274	4	26.6
196	105665	5	26.6
196	132198	6	26.6
196	158494	7	26.6
196	184664	8	26.6
196	210710	9	26.6
196	236604	10	26.6
196	262412	11	27.044350710099
196	288189	12	29.769024365276
196	314173	13	35.439032735583
196	340105	14	42.864878653454
196	366137	15	52.040683902834
196	392101	16	63.053382376623
196	417973	17	75.185679422813
196	443778	18	87.331107133995
196	469342	19	99.473250089972
196	494894	20	111.61136218293
499	52853	3	0.973
499	79274	4	0.973
499	105665	5	0.973
499	132198	6	4.4969621907955
499	158494	7	6.6858027610369
499	184664	8	7.9952041238548
499	210710	9	9.4562216055911
499	236604	10	9.5957763474084
499	262412	11	4.4363450337484
499	288189	12	2.8721303473861
499	314173	13	2.1131666179394
499	340105	14	2.2799867288376
499	366137	15	2.5019355924744
499	392101	16	2.3831412249122
499	417973	17	2.2599912225832
499	443778	18	2.600789691342
499	469342	19	2.4325781969192
499	494894	20	2.3594503227358
498	52853	3	-3.7901988536386
498	79274	4	-4.4672644335336
498	105665	5	-1.3663147997274
498	132198	6	1.3556698317104
498	158494	7	1.9044184637605
498	184664	8	1.9791630936693
498	210710	9	2.0557116846601
498	236604	10	1.8133472760115
498	262412	11	0.49438429547136
498	288189	12	0.11080311419443
498	314173	13	-0.070172290059272
498	340105	14	-0.028949848217891
498	366137	15	0.024054013784042
498	392101	16	-0.0045556744793416
498	417973	17	-0.03338757904945
498	443778	18	0.04764768171357
498	469342	19	0.0067445229692389
498	494894	20	-0.010610967220273
299	26342	2	17.129615932305
299	52853	3	13.339417078667
299	79274	4	8.8721526451331
299	105665	5	7.5058378454057
299	132198	6	8.8615076771161
299	158494	7	10.765926140877
299	184664	8	12.745089234546
299	210710	9	14.800800919206
299	236604	10	16.614148195217
299	262412	11	17.108532490689
299	288189	12	17.219335604883
299	314173	13	17.149163314824
299	340105	14	17.120213466606
299	366137	15	17.14426748039
299	392101	16	17.139711805911
299	417973	17	17.106324226861
299	443778	18	17.153971908575
299	469342	19	17.160716431544
299	494894	20	17.150105464324
199	2	1	926.6
199	26342	2	926.6
199	52853	3	926.6
199	79274	4	926.6
199	105665	5	926.6
199	132198	6	924.32473452996
199	158494	7	916.75591905539
199	184664	8	906.89136446596
199	210710	9	895.0638643042
199	236604	10	881.16153764328
199	262412	11	865.37480638742
199	288189	12	848.27354406595
199	314173	13	831.11333094229
199	340105	14	813.96386067379
199	366137	15	796.81581244922
199	392101	16	779.6518141684
199	417973	17	762.49300998725
199	443778	18	745.35078534054
199	469342	19	728.1867733469
199	494894	20	711.03790389443
198	2	1	875.54249753119
198	26342	2	875.54249753119
198	52853	3	892.71003247753
198	79274	4	908.03539498126
198	105665	5	918.9041988174
198	132198	6	925.38573413923
198	158494	7	926.6
198	184664	8	926.6
198	210710	9	926.6
198	236604	10	926.6
198	262412	11	926.6
198	288189	12	926.6
198	314173	13	926.6
198	340105	14	926.6
198	366137	15	926.6
198	392101	16	926.6
198	417973	17	926.6
198	443778	18	926.6
198	469342	19	926.6
198	494894	20	926.6

