version 2
run Default-0-20210328-22:43:39-850799
attr configname Default
attr datetime 20210328-22:43:39
attr experiment Default
attr inifile omnetpp.ini
attr iterationvars ""
attr iterationvarsf ""
attr measurement ""
attr network RSUExampleScenario
attr processid 850799
attr repetition 0
attr replication #0
attr resultdir results
attr runnumber 0
attr seedset 0
param *.playgroundSizeX 2500m
param *.playgroundSizeY 2500m
param *.playgroundSizeZ 50m
param *.annotations.draw true
param *.obstacles.obstacles "xmldoc(\"config.xml\", \"//AnalogueModel[@type='SimpleObstacleShadowing']/obstacles\")"
param *.manager.updateInterval 1s
param *.manager.host "\"localhost\""
param *.manager.port 9999
param *.manager.autoShutdown true
param *.manager.launchConfig "xmldoc(\"erlangen.launchd.xml\")"
param *.rsu[0].mobility.x 2000
param *.rsu[0].mobility.y 2000
param *.rsu[0].mobility.z 3
param *.rsu[*].applType "\"TraCIDemoRSU11p\""
param *.rsu[*].appl.headerLength "80 bit"
param *.rsu[*].appl.sendBeacons false
param *.rsu[*].appl.dataOnSch false
param *.rsu[*].appl.beaconInterval 1s
param *.rsu[*].appl.beaconUserPriority 7
param *.rsu[*].appl.dataUserPriority 5
param *.rsu[*].nic.phy80211p.antennaOffsetZ "0 m"
param *.connectionManager.sendDirect true
param *.connectionManager.maxInterfDist 2600m
param *.connectionManager.drawMaxIntfDist false
param *.**.nic.mac1609_4.useServiceChannel false
param *.**.nic.mac1609_4.txPower 20mW
param *.**.nic.mac1609_4.bitrate 6Mbps
param *.**.nic.phy80211p.minPowerLevel -110dBm
param *.**.nic.phy80211p.useNoiseFloor true
param *.**.nic.phy80211p.noiseFloor -98dBm
param *.**.nic.phy80211p.decider "xmldoc(\"config.xml\")"
param *.**.nic.phy80211p.analogueModels "xmldoc(\"config.xml\")"
param *.**.nic.phy80211p.usePropagationDelay true
param *.**.nic.phy80211p.antenna "xmldoc(\"antenna.xml\", \"/root/Antenna[@id='monopole']\")"
param *.node[*].nic.phy80211p.antennaOffsetY "0 m"
param *.node[*].nic.phy80211p.antennaOffsetZ "1.895 m"
param *.node[*].applType "\"JosephVeinsApp\""
param *.node[*].appl.headerLength "80 bit"
param *.node[*].appl.sendBeacons true
param *.node[*].appl.dataOnSch false
param *.node[*].appl.beaconInterval 1s
param *.node[*].appl.serialNumber "\"erlangenScenario-ITSG5\""
param *.node[*].appl.savePath "\"../../../f2md-results/sim-traces/\""
param *.node[*].appl.UseAttacksServer false
param *.node[*].appl.MixLocalAttacks true
param *.node[*].appl.RandomLocalMix false
param *.node[*].appl.LOCAL_ATTACKER_PROB 0.3
param *.node[*].appl.LOCAL_ATTACK_TYPE 1
param *.node[*].appl.GLOBAL_ATTACKER_PROB 0.0
param *.node[*].appl.GLOBAL_ATTACK_TYPE 20
param *.node[*].appl.EnablePC false
param *.node[*].appl.PC_TYPE 5
param *.node[*].appl.EnableV1 false
param *.node[*].appl.EnableV2 false
param *.node[*].appl.SaveStatsV1 false
param *.node[*].appl.SaveStatsV2 false
param *.node[*].appl.checksVersionV1 2
param *.node[*].appl.checksVersionV2 2
param *.node[*].appl.appTypeV1 0
param *.node[*].appl.appTypeV2 2
param *.node[*].appl.appl.REPORT_VERSION 2
param *.node[*].appl.sendReportsV1 false
param *.node[*].appl.sendReportsV2 false
param *.node[*].appl.maHostV1 "\"localhost\""
param *.node[*].appl.maHostV2 "\"localhost\""
param *.node[*].appl.maPortV1 9980
param *.node[*].appl.maPortV2 9981
param *.node[*].appl.writeSelfMsg false
param *.node[*].appl.writeListSelfMsg false
param *.node[*].appl.writeBsmsV1 false
param *.node[*].appl.writeBsmsV2 false
param *.node[*].appl.writeListBsmsV1 false
param *.node[*].appl.writeListBsmsV2 false
param *.node[*].appl.writeReportsV1 false
param *.node[*].appl.writeReportsV2 false
param *.node[*].appl.writeListReportsV1 false
param *.node[*].appl.writeListReportsV2 false
param *.node[*].appl.writeVeReMi true
param *.node[*].appl.VeReMiSliceTime 3600
param *.node[*].appl.veremiConf true
param *.node[*].appl.randomConf false
param *.node[*].appl.variableConf false
param *.node[*].appl.confPos 10.0
param *.node[*].appl.confSpd 0.05
param *.node[*].appl.confHea 20.0
param *.node[*].appl.confAcc 0.01
param *.node[*].appl.confPrec 100.0
param *.node[*].appl.minConf 0.20
param *.node[*].appl.SAVE_PERIOD 10
param *.node[*].appl.PRINT_PERIOD 60
param *.node[*].appl.START_SAVE 0
param *.node[*].appl.START_ATTACK 10
param *.node[*].appl.enableVarThreV1 false
param *.node[*].appl.enableVarThreV2 false
param *.node[*].appl.MAX_PROXIMITY_RANGE_L 30
param *.node[*].appl.MAX_PROXIMITY_RANGE_W 3
param *.node[*].appl.MAX_PROXIMITY_DISTANCE 2
param *.node[*].appl.MAX_CONFIDENCE_RANGE 10
param *.node[*].appl.MAX_PLAUSIBLE_RANGE 420
param *.node[*].appl.MAX_TIME_DELTA 3.1
param *.node[*].appl.MAX_DELTA_INTER 2.0
param *.node[*].appl.MAX_SA_RANGE 420
param *.node[*].appl.MAX_SA_TIME 2.1
param *.node[*].appl.MAX_KALMAN_TIME 3.1
param *.node[*].appl.KALMAN_POS_RANGE 1.0
param *.node[*].appl.KALMAN_SPEED_RANGE 4.0
param *.node[*].appl.KALMAN_MIN_POS_RANGE 4.0
param *.node[*].appl.KALMAN_MIN_SPEED_RANGE 1.0
param *.node[*].appl.MIN_MAX_SPEED 40
param *.node[*].appl.MIN_MAX_ACCEL 3
param *.node[*].appl.MIN_MAX_DECEL 4.5
param *.node[*].appl.MAX_MGT_RNG 4
param *.node[*].appl.MAX_MGT_RNG_DOWN 6.2
param *.node[*].appl.MAX_MGT_RNG_UP 2.1
param *.node[*].appl.MAX_BEACON_FREQUENCY 0.99
param *.node[*].appl.MAX_DISTANCE_FROM_ROUTE 2
param *.node[*].appl.MAX_NON_ROUTE_SPEED -1
param *.node[*].appl.MAX_HEADING_CHANGE 90
param *.node[*].appl.DELTA_BSM_TIME 5
param *.node[*].appl.DELTA_REPORT_TIME 5
param *.node[*].appl.POS_HEADING_TIME 1.1
param *.node[*].appl.MAX_TARGET_TIME 2
param *.node[*].appl.MAX_ACCUSED_TIME 2
param *.node[*].appl.parVar 0.55
param *.node[*].appl.RandomPosOffsetX 70.0
param *.node[*].appl.RandomPosOffsetY 70.0
param *.node[*].appl.RandomSpeedX 40.0
param *.node[*].appl.RandomSpeedY 40.0
param *.node[*].appl.RandomSpeedOffsetX 7.0
param *.node[*].appl.RandomSpeedOffsetY 7.0
param *.node[*].appl.RandomAccelX 2.0
param *.node[*].appl.RandomAccelY 2.0
param *.node[*].appl.StopProb 0.05
param *.node[*].appl.StaleMessages_Buffer 60
param *.node[*].appl.DosMultipleFreq 4
param *.node[*].appl.DosMultipleFreqSybil 2
param *.node[*].appl.ReplaySeqNum 6
param *.node[*].appl.SybilVehNumber 5
param *.node[*].appl.SelfSybil false
param *.node[*].appl.SybilDistanceX 5
param *.node[*].appl.SybilDistanceY 2
param *.node[*].appl.MyConstantPos 1000
param *.node[*].appl.Period_Change_Time 240
param *.node[*].appl.Tolerance_Buffer 10
param *.node[*].appl.Period_Change_Distance 80
param *.node[*].appl.Random_Change_Chance 0.1
param *.node[*].appl.InitialHistory 5
param *.node[*].appl.CollectionPeriod 10
param *.node[*].appl.UntolerancePeriod 5
param *.node[*].veinsmobility.x 0
param *.node[*].veinsmobility.y 0
param *.node[*].veinsmobility.z 0
param *.node[*].veinsmobility.setHostSpeed false
param *.node[*].veinsmobility.setHostAcceleration false
param *.node[*0].veinsmobility.accidentCount 0
param *.node[*0].veinsmobility.accidentStart 73s
param *.node[*0].veinsmobility.accidentDuration 50s

vector 0 RSUExampleScenario.node[0].veinsmobility posx ETV
vector 1 RSUExampleScenario.node[0].veinsmobility posy ETV
vector 2 RSUExampleScenario.node[0].veinsmobility speed ETV
vector 3 RSUExampleScenario.node[0].veinsmobility acceleration ETV
vector 4 RSUExampleScenario.node[0].veinsmobility co2emission ETV
vector 5 RSUExampleScenario.node[1].veinsmobility posx ETV
vector 6 RSUExampleScenario.node[1].veinsmobility posy ETV
vector 7 RSUExampleScenario.node[1].veinsmobility speed ETV
vector 8 RSUExampleScenario.node[1].veinsmobility acceleration ETV
vector 9 RSUExampleScenario.node[1].veinsmobility co2emission ETV
vector 10 RSUExampleScenario.node[2].veinsmobility posx ETV
vector 11 RSUExampleScenario.node[2].veinsmobility posy ETV
vector 12 RSUExampleScenario.node[2].veinsmobility speed ETV
vector 13 RSUExampleScenario.node[2].veinsmobility acceleration ETV
vector 14 RSUExampleScenario.node[2].veinsmobility co2emission ETV
vector 15 RSUExampleScenario.node[3].veinsmobility posx ETV
vector 16 RSUExampleScenario.node[3].veinsmobility posy ETV
vector 17 RSUExampleScenario.node[3].veinsmobility speed ETV
vector 18 RSUExampleScenario.node[3].veinsmobility acceleration ETV
vector 19 RSUExampleScenario.node[3].veinsmobility co2emission ETV
vector 20 RSUExampleScenario.node[4].veinsmobility posx ETV
vector 21 RSUExampleScenario.node[4].veinsmobility posy ETV
vector 22 RSUExampleScenario.node[4].veinsmobility speed ETV
vector 23 RSUExampleScenario.node[4].veinsmobility acceleration ETV
vector 24 RSUExampleScenario.node[4].veinsmobility co2emission ETV
vector 25 RSUExampleScenario.node[5].veinsmobility posx ETV
vector 26 RSUExampleScenario.node[5].veinsmobility posy ETV
vector 27 RSUExampleScenario.node[5].veinsmobility speed ETV
vector 28 RSUExampleScenario.node[5].veinsmobility acceleration ETV
vector 29 RSUExampleScenario.node[5].veinsmobility co2emission ETV
vector 30 RSUExampleScenario.node[6].veinsmobility posx ETV
vector 31 RSUExampleScenario.node[6].veinsmobility posy ETV
vector 32 RSUExampleScenario.node[6].veinsmobility speed ETV
vector 33 RSUExampleScenario.node[6].veinsmobility acceleration ETV
vector 34 RSUExampleScenario.node[6].veinsmobility co2emission ETV
vector 35 RSUExampleScenario.node[7].veinsmobility posx ETV
vector 36 RSUExampleScenario.node[7].veinsmobility posy ETV
vector 37 RSUExampleScenario.node[7].veinsmobility speed ETV
vector 38 RSUExampleScenario.node[7].veinsmobility acceleration ETV
vector 39 RSUExampleScenario.node[7].veinsmobility co2emission ETV
vector 40 RSUExampleScenario.node[8].veinsmobility posx ETV
vector 41 RSUExampleScenario.node[8].veinsmobility posy ETV
vector 42 RSUExampleScenario.node[8].veinsmobility speed ETV
vector 43 RSUExampleScenario.node[8].veinsmobility acceleration ETV
vector 44 RSUExampleScenario.node[8].veinsmobility co2emission ETV
vector 45 RSUExampleScenario.node[9].veinsmobility posx ETV
vector 46 RSUExampleScenario.node[9].veinsmobility posy ETV
vector 47 RSUExampleScenario.node[9].veinsmobility speed ETV
vector 48 RSUExampleScenario.node[9].veinsmobility acceleration ETV
vector 49 RSUExampleScenario.node[9].veinsmobility co2emission ETV
vector 50 RSUExampleScenario.node[10].veinsmobility posx ETV
vector 51 RSUExampleScenario.node[10].veinsmobility posy ETV
vector 52 RSUExampleScenario.node[10].veinsmobility speed ETV
vector 53 RSUExampleScenario.node[10].veinsmobility acceleration ETV
vector 54 RSUExampleScenario.node[10].veinsmobility co2emission ETV
vector 55 RSUExampleScenario.node[11].veinsmobility posx ETV
vector 56 RSUExampleScenario.node[11].veinsmobility posy ETV
vector 57 RSUExampleScenario.node[11].veinsmobility speed ETV
vector 58 RSUExampleScenario.node[11].veinsmobility acceleration ETV
vector 59 RSUExampleScenario.node[11].veinsmobility co2emission ETV
vector 60 RSUExampleScenario.node[12].veinsmobility posx ETV
vector 61 RSUExampleScenario.node[12].veinsmobility posy ETV
vector 62 RSUExampleScenario.node[12].veinsmobility speed ETV
vector 63 RSUExampleScenario.node[12].veinsmobility acceleration ETV
vector 64 RSUExampleScenario.node[12].veinsmobility co2emission ETV
vector 65 RSUExampleScenario.node[13].veinsmobility posx ETV
vector 66 RSUExampleScenario.node[13].veinsmobility posy ETV
vector 67 RSUExampleScenario.node[13].veinsmobility speed ETV
vector 68 RSUExampleScenario.node[13].veinsmobility acceleration ETV
vector 69 RSUExampleScenario.node[13].veinsmobility co2emission ETV
vector 70 RSUExampleScenario.node[14].veinsmobility posx ETV
vector 71 RSUExampleScenario.node[14].veinsmobility posy ETV
vector 72 RSUExampleScenario.node[14].veinsmobility speed ETV
vector 73 RSUExampleScenario.node[14].veinsmobility acceleration ETV
vector 74 RSUExampleScenario.node[14].veinsmobility co2emission ETV
vector 75 RSUExampleScenario.node[15].veinsmobility posx ETV
vector 76 RSUExampleScenario.node[15].veinsmobility posy ETV
vector 77 RSUExampleScenario.node[15].veinsmobility speed ETV
vector 78 RSUExampleScenario.node[15].veinsmobility acceleration ETV
vector 79 RSUExampleScenario.node[15].veinsmobility co2emission ETV
vector 80 RSUExampleScenario.node[16].veinsmobility posx ETV
vector 81 RSUExampleScenario.node[16].veinsmobility posy ETV
vector 82 RSUExampleScenario.node[16].veinsmobility speed ETV
vector 83 RSUExampleScenario.node[16].veinsmobility acceleration ETV
vector 84 RSUExampleScenario.node[16].veinsmobility co2emission ETV
vector 85 RSUExampleScenario.node[17].veinsmobility posx ETV
vector 86 RSUExampleScenario.node[17].veinsmobility posy ETV
vector 87 RSUExampleScenario.node[17].veinsmobility speed ETV
vector 88 RSUExampleScenario.node[17].veinsmobility acceleration ETV
vector 89 RSUExampleScenario.node[17].veinsmobility co2emission ETV
vector 90 RSUExampleScenario.node[18].veinsmobility posx ETV
vector 91 RSUExampleScenario.node[18].veinsmobility posy ETV
vector 92 RSUExampleScenario.node[18].veinsmobility speed ETV
vector 93 RSUExampleScenario.node[18].veinsmobility acceleration ETV
vector 94 RSUExampleScenario.node[18].veinsmobility co2emission ETV
vector 95 RSUExampleScenario.node[19].veinsmobility posx ETV
vector 96 RSUExampleScenario.node[19].veinsmobility posy ETV
vector 97 RSUExampleScenario.node[19].veinsmobility speed ETV
vector 98 RSUExampleScenario.node[19].veinsmobility acceleration ETV
vector 99 RSUExampleScenario.node[19].veinsmobility co2emission ETV
vector 100 RSUExampleScenario.node[20].veinsmobility posx ETV
vector 101 RSUExampleScenario.node[20].veinsmobility posy ETV
vector 102 RSUExampleScenario.node[20].veinsmobility speed ETV
vector 103 RSUExampleScenario.node[20].veinsmobility acceleration ETV
vector 104 RSUExampleScenario.node[20].veinsmobility co2emission ETV
vector 105 RSUExampleScenario.node[21].veinsmobility posx ETV
vector 106 RSUExampleScenario.node[21].veinsmobility posy ETV
vector 107 RSUExampleScenario.node[21].veinsmobility speed ETV
vector 108 RSUExampleScenario.node[21].veinsmobility acceleration ETV
vector 109 RSUExampleScenario.node[21].veinsmobility co2emission ETV
vector 110 RSUExampleScenario.node[22].veinsmobility posx ETV
vector 111 RSUExampleScenario.node[22].veinsmobility posy ETV
vector 112 RSUExampleScenario.node[22].veinsmobility speed ETV
vector 113 RSUExampleScenario.node[22].veinsmobility acceleration ETV
vector 114 RSUExampleScenario.node[22].veinsmobility co2emission ETV
vector 115 RSUExampleScenario.node[23].veinsmobility posx ETV
vector 116 RSUExampleScenario.node[23].veinsmobility posy ETV
vector 117 RSUExampleScenario.node[23].veinsmobility speed ETV
vector 118 RSUExampleScenario.node[23].veinsmobility acceleration ETV
vector 119 RSUExampleScenario.node[23].veinsmobility co2emission ETV
vector 120 RSUExampleScenario.node[24].veinsmobility posx ETV
vector 121 RSUExampleScenario.node[24].veinsmobility posy ETV
vector 122 RSUExampleScenario.node[24].veinsmobility speed ETV
vector 123 RSUExampleScenario.node[24].veinsmobility acceleration ETV
vector 124 RSUExampleScenario.node[24].veinsmobility co2emission ETV
vector 125 RSUExampleScenario.node[25].veinsmobility posx ETV
vector 126 RSUExampleScenario.node[25].veinsmobility posy ETV
vector 127 RSUExampleScenario.node[25].veinsmobility speed ETV
vector 128 RSUExampleScenario.node[25].veinsmobility acceleration ETV
vector 129 RSUExampleScenario.node[25].veinsmobility co2emission ETV
vector 130 RSUExampleScenario.node[26].veinsmobility posx ETV
vector 131 RSUExampleScenario.node[26].veinsmobility posy ETV
vector 132 RSUExampleScenario.node[26].veinsmobility speed ETV
vector 133 RSUExampleScenario.node[26].veinsmobility acceleration ETV
vector 134 RSUExampleScenario.node[26].veinsmobility co2emission ETV
vector 135 RSUExampleScenario.node[27].veinsmobility posx ETV
vector 136 RSUExampleScenario.node[27].veinsmobility posy ETV
vector 137 RSUExampleScenario.node[27].veinsmobility speed ETV
vector 138 RSUExampleScenario.node[27].veinsmobility acceleration ETV
vector 139 RSUExampleScenario.node[27].veinsmobility co2emission ETV
vector 140 RSUExampleScenario.node[28].veinsmobility posx ETV
vector 141 RSUExampleScenario.node[28].veinsmobility posy ETV
vector 142 RSUExampleScenario.node[28].veinsmobility speed ETV
vector 143 RSUExampleScenario.node[28].veinsmobility acceleration ETV
vector 144 RSUExampleScenario.node[28].veinsmobility co2emission ETV
vector 145 RSUExampleScenario.node[29].veinsmobility posx ETV
vector 146 RSUExampleScenario.node[29].veinsmobility posy ETV
vector 147 RSUExampleScenario.node[29].veinsmobility speed ETV
vector 148 RSUExampleScenario.node[29].veinsmobility acceleration ETV
vector 149 RSUExampleScenario.node[29].veinsmobility co2emission ETV
vector 150 RSUExampleScenario.node[30].veinsmobility posx ETV
vector 151 RSUExampleScenario.node[30].veinsmobility posy ETV
vector 152 RSUExampleScenario.node[30].veinsmobility speed ETV
vector 153 RSUExampleScenario.node[30].veinsmobility acceleration ETV
vector 154 RSUExampleScenario.node[30].veinsmobility co2emission ETV
vector 155 RSUExampleScenario.node[31].veinsmobility posx ETV
vector 156 RSUExampleScenario.node[31].veinsmobility posy ETV
vector 157 RSUExampleScenario.node[31].veinsmobility speed ETV
vector 158 RSUExampleScenario.node[31].veinsmobility acceleration ETV
vector 159 RSUExampleScenario.node[31].veinsmobility co2emission ETV
vector 160 RSUExampleScenario.node[32].veinsmobility posx ETV
vector 161 RSUExampleScenario.node[32].veinsmobility posy ETV
vector 162 RSUExampleScenario.node[32].veinsmobility speed ETV
vector 163 RSUExampleScenario.node[32].veinsmobility acceleration ETV
vector 164 RSUExampleScenario.node[32].veinsmobility co2emission ETV
vector 165 RSUExampleScenario.node[33].veinsmobility posx ETV
vector 166 RSUExampleScenario.node[33].veinsmobility posy ETV
vector 167 RSUExampleScenario.node[33].veinsmobility speed ETV
vector 168 RSUExampleScenario.node[33].veinsmobility acceleration ETV
vector 169 RSUExampleScenario.node[33].veinsmobility co2emission ETV
vector 170 RSUExampleScenario.node[34].veinsmobility posx ETV
vector 171 RSUExampleScenario.node[34].veinsmobility posy ETV
vector 172 RSUExampleScenario.node[34].veinsmobility speed ETV
vector 173 RSUExampleScenario.node[34].veinsmobility acceleration ETV
vector 174 RSUExampleScenario.node[34].veinsmobility co2emission ETV
vector 175 RSUExampleScenario.node[35].veinsmobility posx ETV
vector 176 RSUExampleScenario.node[35].veinsmobility posy ETV
vector 177 RSUExampleScenario.node[35].veinsmobility speed ETV
vector 178 RSUExampleScenario.node[35].veinsmobility acceleration ETV
vector 179 RSUExampleScenario.node[35].veinsmobility co2emission ETV
vector 180 RSUExampleScenario.node[36].veinsmobility posx ETV
vector 181 RSUExampleScenario.node[36].veinsmobility posy ETV
vector 182 RSUExampleScenario.node[36].veinsmobility speed ETV
vector 183 RSUExampleScenario.node[36].veinsmobility acceleration ETV
vector 184 RSUExampleScenario.node[36].veinsmobility co2emission ETV
vector 185 RSUExampleScenario.node[37].veinsmobility posx ETV
vector 186 RSUExampleScenario.node[37].veinsmobility posy ETV
vector 187 RSUExampleScenario.node[37].veinsmobility speed ETV
vector 188 RSUExampleScenario.node[37].veinsmobility acceleration ETV
vector 189 RSUExampleScenario.node[37].veinsmobility co2emission ETV
vector 190 RSUExampleScenario.node[38].veinsmobility posx ETV
vector 191 RSUExampleScenario.node[38].veinsmobility posy ETV
vector 192 RSUExampleScenario.node[38].veinsmobility speed ETV
vector 193 RSUExampleScenario.node[38].veinsmobility acceleration ETV
vector 194 RSUExampleScenario.node[38].veinsmobility co2emission ETV
vector 195 RSUExampleScenario.node[39].veinsmobility posx ETV
vector 196 RSUExampleScenario.node[39].veinsmobility posy ETV
vector 197 RSUExampleScenario.node[39].veinsmobility speed ETV
vector 198 RSUExampleScenario.node[39].veinsmobility acceleration ETV
vector 199 RSUExampleScenario.node[39].veinsmobility co2emission ETV
0	2	1	2414.8476884116
0	12	2	2414.8476884116
0	22	3	2411.8243290941
0	32	4	2407.1592244543
0	63	5	2402.288200066
0	94	6	2396.1394374635
0	125	7	2388.6993875942
0	189	8	2379.889221533
0	253	9	2370.1207192459
0	317	10	2360.3141803208
0	426	11	2350.5099475634
0	535	12	2341.0010868867
0	644	13	2334.5620136983
0	810	14	2337.6803779466
0	976	15	2348.3497968862
0	1142	16	2358.6961674725
0	1377	17	2371.6616533546
0	1612	18	2385.4706804305
0	1847	19	2399.3588350668
0	2163	20	2412.4541998667
0	2479	21	2421.4418196582
0	2795	22	2428.417609864
0	3204	23	2431.468930052
0	3613	24	2433.1513403206
0	4022	25	2435.1237040944
0	4536	26	2437.2173147583
0	5050	27	2438.6437980286
0	5564	28	2439.5074353185
0	6195	29	2440.517813261
0	6826	30	2441.5286354903
0	7457	31	2442.5392864447
0	8215	32	2443.5505626462
0	8967	33	2444.5611125134
0	9717	34	2445.5724211388
0	10602	35	2446.5834693939
0	11477	36	2447.5934051003
0	12346	37	2448.6036931522
0	13354	38	2449.6148620235
0	14348	39	2450.6248001783
0	15328	40	2449.5880553933
0	16459	41	2448.4757357414
0	17588	42	2447.3635385588
0	18715	43	2446.250303259
0	20027	44	2445.1365203297
0	21333	45	2444.0235521834
0	22641	46	2442.9111769209
0	24124	47	2441.7982721732
0	25597	48	2440.6856421625
0	27054	49	2439.7151308154
0	28699	50	2438.7725309408
0	30325	51	2437.9056889905
0	31935	52	2432.8785054281
0	33862	53	2422.5273191113
0	35771	54	2409.439604845
0	37670	55	2395.517893619
0	39790	56	2381.592286239
0	41902	57	2367.6659531716
0	44014	58	2353.7601239877
0	46330	59	2339.8337569573
0	48629	60	2325.9069679289
0	50895	61	2311.9542202253
0	53388	62	2298.0325140053
0	55859	63	2284.0857072632
0	58320	64	2270.1754193477
0	60971	65	2256.2378749268
0	63614	66	2242.3725172955
0	66239	67	2228.5568932705
0	69062	68	2214.8035730832
0	71836	69	2201.6130456962
0	74562	70	2188.4247624045
0	77489	71	2175.5107078577
0	80362	72	2163.5018647154
0	83215	73	2152.2359160049
0	86340	74	2144.5614629743
0	89453	75	2138.2558950796
0	92592	76	2131.5955681979
0	95958	77	2123.7056670481
0	99318	78	2114.4870687368
0	102683	79	2104.967243704
0	106295	80	2095.4384303803
0	109864	81	2085.9056783495
0	113404	82	2076.3779145891
0	117222	83	2066.8424239405
0	121152	84	2057.3019868316
0	125102	85	2047.7591241145
0	129331	86	2037.7608240946
0	133538	87	2027.7716043318
0	137705	88	2017.7788433422
0	142148	89	2007.7911366803
0	146568	90	1997.8010467655
0	150965	91	1987.8117551972
0	155654	92	1977.8105066026
0	160336	93	1967.8078011014
0	165029	94	1957.8261436883
0	170014	95	1947.8354978411
0	174950	96	1937.8357170075
0	179839	97	1928.0943876163
0	185002	98	1918.3458898404
0	190154	99	1908.595691517
0	195253	100	1898.860628812
0	200633	101	1889.1253430418
0	206028	102	1879.3899734151
0	211365	103	1869.6541828585
0	217016	104	1859.9138401168
0	222648	105	1850.1927032812
0	228277	106	1840.4627611398
0	234181	107	1830.4943832025
0	240064	108	1820.3899234756
0	245947	109	1810.2821070175
0	252102	110	1800.3072354572
0	258201	111	1790.3538284535
0	264299	112	1780.4116429748
0	270714	113	1770.4645217122
0	277265	114	1760.5038479915
0	283812	115	1750.5548786415
0	290653	116	1740.6057387365
0	297531	117	1730.6509342341
0	304389	118	1720.6987788925
0	311620	119	1710.7568396883
0	318848	120	1700.8018530838
1	2	1	1578.4613427464
1	12	2	1578.4613427464
1	22	3	1579.5715045081
1	32	4	1581.5561876604
1	63	5	1586.4898643075
1	94	6	1592.7177137369
1	125	7	1600.2534592729
1	189	8	1609.1769437566
1	253	9	1619.0710908128
1	317	10	1629.0037637418
1	426	11	1638.9341008412
1	535	12	1649.1129276818
1	644	13	1661.0453354148
1	810	14	1673.5713017788
1	976	15	1682.4825292248
1	1142	16	1691.8131453674
1	1377	17	1695.5671389326
1	1612	18	1697.3762977775
1	1847	19	1698.7149431584
1	2163	20	1699.9531973498
1	2479	21	1700.8030368192
1	2795	22	1701.4822415169
1	3204	23	1709.488976148
1	3613	24	1720.5600911779
1	4022	25	1733.5392477075
1	4536	26	1747.3162704222
1	5050	27	1761.1584832035
1	5564	28	1775.0702432813
1	6195	29	1788.9649324082
1	6826	30	1802.8657313576
1	7457	31	1816.7641749373
1	8215	32	1830.6712168986
1	8967	33	1844.5682703312
1	9717	34	1858.4757581847
1	10602	35	1872.3796654344
1	11477	36	1886.2682729438
1	12346	37	1900.1617258992
1	13354	38	1914.0672918586
1	14348	39	1927.95593304
1	15328	40	1941.8192613758
1	16459	41	1955.7024557721
1	17588	42	1969.5841215905
1	18715	43	1983.4787444612
1	20027	44	1997.3802024601
1	21333	45	2011.2714909082
1	22641	46	2025.1553793969
1	24124	47	2039.0458765477
1	25597	48	2052.9329446238
1	27054	49	2066.8462265795
1	28699	50	2080.7728807703
1	30325	51	2094.6498483503
1	31935	52	2107.3969092406
1	33862	53	2116.410831539
1	35771	54	2120.9360540062
1	37670	55	2120.5048353085
1	39790	56	2120.0344859883
1	41902	57	2119.5641121576
1	44014	58	2119.0944308629
1	46330	59	2118.6240558857
1	48629	60	2118.1536666537
1	50895	61	2117.6824006466
1	53388	62	2117.2121830918
1	55859	63	2116.7411177447
1	58320	64	2116.2712858524
1	60971	65	2115.8005333487
1	63614	66	2114.7955725584
1	66239	67	2112.8364102887
1	69062	68	2110.6440530941
1	71836	69	2106.1704403665
1	74562	70	2101.6975887315
1	77489	71	2096.6391956527
1	80362	72	2089.5697793076
1	83215	73	2082.9376931852
1	86340	74	2078.419863862
1	89453	75	2074.2936624894
1	92592	76	2067.3736373968
1	95958	77	2058.9511591028
1	99318	78	2049.1102951029
1	102683	79	2038.9478712408
1	106295	80	2028.7758523691
1	109864	81	2018.5996289225
1	113404	82	2008.4287304608
1	117222	83	1998.2495835368
1	121152	84	1988.0651562605
1	125102	85	1977.9077978879
1	129331	86	1968.1884612162
1	133538	87	1958.4779514531
1	137705	88	1948.7639992675
1	142148	89	1939.0549603878
1	146568	90	1929.3436047509
1	150965	91	1919.6330251861
1	155654	92	1909.910822208
1	160336	93	1900.1872029733
1	165029	94	1890.4840445621
1	170014	95	1880.7721485039
1	174950	96	1871.0513723353
1	179839	97	1861.0772373844
1	185002	98	1851.0875595547
1	190154	99	1841.096139106
1	195253	100	1831.1202287339
1	200633	101	1821.144089778
1	206028	102	1811.1678648908
1	211365	103	1801.1912086597
1	217016	104	1791.209887621
1	222648	105	1781.2482476477
1	228277	106	1771.277584523
1	234181	107	1761.5227281116
1	240064	108	1751.9260671614
1	245947	109	1742.3262181729
1	252102	110	1732.5843797447
1	258201	111	1722.8299162164
1	264299	112	1713.086449923
1	270714	113	1703.3381465003
1	277265	114	1693.5765614985
1	283812	115	1683.8264469272
1	290653	116	1674.0761652095
1	297531	117	1664.3203321155
1	304389	118	1654.5670952313
1	311620	119	1644.823870291
1	318848	120	1635.0678587342
2	12	2	4.1061966058897
2	22	3	6.0195495591482
2	32	4	7.7148368984793
2	63	5	9.5879868385225
2	94	6	11.391389363371
2	125	7	13.513839789145
2	189	8	13.99235115225
2	253	9	13.890224446259
2	317	10	13.976677174468
2	426	11	13.994826577434
2	535	12	13.923680325528
2	644	13	13.923542996629
2	810	14	13.91007151508
2	976	15	13.964598868005
2	1142	16	13.995233640105
2	1377	17	13.952304350403
2	1612	18	13.956911946491
2	1847	19	11.503494614513
2	2163	20	7.0034946145128
2	2479	21	7.8970062485022
2	2795	22	10.10483181514
2	3204	23	11.990706169653
2	3613	24	13.981089308816
2	4022	25	13.965594365916
2	4536	26	13.989059597438
2	5050	27	13.956378436291
2	5564	28	13.910982951869
2	6195	29	13.88918493646
2	6826	30	13.908189346099
2	7457	31	13.983992603337
2	8215	32	13.971500478752
2	8967	33	13.873081948087
2	9717	34	13.985133641064
2	10602	35	13.886848415199
2	11477	36	13.876205747321
2	12346	37	13.967912819823
2	13354	38	13.871047234884
2	14348	39	13.89239756926
2	15328	40	13.872267716837
2	16459	41	13.999815066161
2	17588	42	13.964707984752
2	18715	43	13.906584702837
2	20027	44	13.922364303169
2	21333	45	13.929034490574
2	22641	46	13.93922677479
2	24124	47	13.924399639922
2	25597	48	13.96850544848
2	27054	49	13.986686690277
2	28699	50	13.935194088209
2	30325	51	13.930097484484
2	31935	52	13.948393711536
2	33862	53	13.882971800906
2	35771	54	13.87138918183
2	37670	55	13.933780807857
2	39790	56	13.942265776542
2	41902	57	13.95140511482
2	44014	58	13.886548467774
2	46330	59	13.920721456567
2	48629	60	13.906796863726
2	50895	61	13.917803910668
2	53388	62	13.924582225601
2	55859	63	13.959688465288
2	58320	64	13.957318032989
2	60971	65	13.940553226951
2	63614	66	13.998651232829
2	66239	67	13.999179182528
2	69062	68	13.886099785112
2	71836	69	13.881868150404
2	74562	70	13.887636745651
2	77489	71	13.978686858166
2	80362	72	11.380505228889
2	83215	73	6.8805052288885
2	86340	74	8.4946715655791
2	89453	75	10.462119500426
2	92592	76	12.535577293956
2	95958	77	13.991704303646
2	99318	78	13.884412832095
2	102683	79	13.939308186586
2	106295	80	13.975432322551
2	109864	81	13.918436620038
2	113404	82	13.942294309565
2	117222	83	13.978181636031
2	121152	84	13.992612206677
2	125102	85	13.973604970614
2	129331	86	13.905247902325
2	133538	87	13.91578970917
2	137705	88	13.942760436635
2	142148	89	13.903644982614
2	146568	90	13.957507387074
2	150965	91	13.990155698378
2	155654	92	13.951199041368
2	160336	93	13.920407453054
2	165029	94	13.913764986643
2	170014	95	13.919862737071
2	174950	96	13.927667983579
2	179839	97	13.987681491903
2	185002	98	13.949967818004
2	190154	99	13.923793041168
2	195253	100	13.956372545112
2	200633	101	13.893336640052
2	206028	102	13.920919575624
2	211365	103	13.944676370309
2	217016	104	13.937630747855
2	222648	105	13.901362465066
2	228277	106	13.954829121996
2	234181	107	13.995929163198
2	240064	108	13.882499602956
2	245947	109	13.910075074201
2	252102	110	13.894284862701
2	258201	111	13.913974985913
2	264299	112	13.871336730926
2	270714	113	13.935027445888
2	277265	114	13.877062078733
2	283812	115	13.981228611642
2	290653	116	13.873776447547
2	297531	117	13.92000553376
2	304389	118	13.94351971182
2	311620	119	13.968914518312
2	318848	120	13.898790548788
3	22	3	1.9133529532584
3	32	4	1.6952873393311
3	63	5	1.8731499400432
3	94	6	1.8034025248489
3	125	7	2.1224504257739
3	189	8	0.47851136310433
3	253	9	-0.1021267059911
3	317	10	0.086452728209551
3	426	11	0.018149402965792
3	535	12	-0.071146251906175
3	644	13	-0.0001373288989992
3	810	14	-0.013471481548622
3	976	15	0.054527352924923
3	1142	16	0.03063477210002
3	1377	17	-0.04292928970186
3	1612	18	0.0046075960877356
3	1847	19	-2.4534173319781
3	2163	20	-4.5
3	2479	21	0.8935116339894
3	2795	22	2.2078255666373
3	3204	23	1.8858743545134
3	3613	24	1.9903831391631
3	4022	25	-0.01549494290026
3	4536	26	0.023465231521987
3	5050	27	-0.032681161146611
3	5564	28	-0.045395484422334
3	6195	29	-0.021798015409148
3	6826	30	0.019004409639164
3	7457	31	0.075803257238585
3	8215	32	-0.012492124584968
3	8967	33	-0.098418530665803
3	9717	34	0.11205169297755
3	10602	35	-0.098285225864965
3	11477	36	-0.01064266787842
3	12346	37	0.091707072502468
3	13354	38	-0.096865584938786
3	14348	39	0.021350334375166
3	15328	40	-0.020129852422979
3	16459	41	0.12754734932445
3	17588	42	-0.035107081409079
3	18715	43	-0.058123281914741
3	20027	44	0.015779600332026
3	21333	45	0.0066701874043797
3	22641	46	0.010192284216172
3	24124	47	-0.014827134867664
3	25597	48	0.044105808557942
3	27054	49	0.018181241797283
3	28699	50	-0.051492602068466
3	30325	51	-0.0050966037251055
3	31935	52	0.018296227052343
3	33862	53	-0.065421910630539
3	35771	54	-0.011582619075197
3	37670	55	0.062391626026946
3	39790	56	0.0084849686850799
3	41902	57	0.0091393382777465
3	44014	58	-0.064856647045817
3	46330	59	0.034172988792415
3	48629	60	-0.013924592840485
3	50895	61	0.011007046941668
3	53388	62	0.0067783149331806
3	55859	63	0.035106239686721
3	58320	64	-0.0023704322986315
3	60971	65	-0.016764806038699
3	63614	66	0.058098005878273
3	66239	67	0.0005279496987356
3	69062	68	-0.11307939741528
3	71836	69	-0.0042316347081215
3	74562	70	0.0057685952470639
3	77489	71	0.091050112515221
3	80362	72	-2.598181629278
3	83215	73	-4.5
3	86340	74	1.6141663366905
3	89453	75	1.9674479348469
3	92592	76	2.0734577935305
3	95958	77	1.4561270096891
3	99318	78	-0.10729147155071
3	102683	79	0.054895354490727
3	106295	80	0.036124135965947
3	109864	81	-0.056995702513959
3	113404	82	0.023857689527794
3	117222	83	0.035887326465454
3	121152	84	0.014430570646654
3	125102	85	-0.01900723606348
3	129331	86	-0.068357068288606
3	133538	87	0.010541806844994
3	137705	88	0.026970727464649
3	142148	89	-0.039115454021376
3	146568	90	0.053862404460089
3	150965	91	0.032648311303928
3	155654	92	-0.038956657010131
3	160336	93	-0.030791588313878
3	165029	94	-0.0066424664109945
3	170014	95	0.0060977504285979
3	174950	96	0.0078052465082141
3	179839	97	0.060013508324046
3	185002	98	-0.037713673899415
3	190154	99	-0.026174776835834
3	195253	100	0.032579503944145
3	200633	101	-0.063035905060826
3	206028	102	0.027582935572138
3	211365	103	0.023756794685031
3	217016	104	-0.0070456224540241
3	222648	105	-0.036268282788805
3	228277	106	0.053466656929812
3	234181	107	0.041100041202736
3	240064	108	-0.11342956024222
3	245947	109	0.027575471245218
3	252102	110	-0.015790211500134
3	258201	111	0.019690123212058
3	264299	112	-0.042638254987542
3	270714	113	0.063690714961849
3	277265	114	-0.057965367154683
3	283812	115	0.10416653290857
3	290653	116	-0.10745216409443
3	297531	117	0.046229086213279
3	304389	118	0.023514178059996
3	311620	119	0.025394806491676
3	318848	120	-0.070123969523701
4	22	3	4.1962556146115
4	32	4	4.6765885426193
4	63	5	5.9822455727343
4	94	6	6.7469998477461
4	125	7	8.9023657158011
4	189	8	3.651678681686
4	253	9	1.6857621818206
4	317	10	2.3276633668785
4	426	11	2.0995306276608
4	535	12	1.7923040941768
4	644	13	2.0305681317735
4	810	14	1.9844951865828
4	976	15	2.2187318873595
4	1142	16	2.1416854339172
4	1377	17	1.8896148890835
4	1612	18	2.0499339673421
4	1847	19	0.973
4	2163	20	0.973
4	2479	21	3.236958348016
4	2795	22	7.0694109561587
4	3204	23	7.2974163894139
4	3613	24	8.7433911631671
4	4022	25	1.9831721788576
4	4536	26	2.116835898497
4	5050	27	1.9244585801898
4	5564	28	1.8775583559564
4	6195	29	1.9545657515643
4	6826	30	2.0931646705581
4	7457	31	2.2926746988581
4	8215	32	1.993865292131
4	8967	33	1.6968396252803
4	9717	34	2.4149847823944
4	10602	35	1.6983583398882
4	11477	36	1.9906198998388
4	12346	37	2.3442713071536
4	13354	38	1.7018725964397
4	14348	39	2.0993392475273
4	15328	40	1.9585122345881
4	16459	41	2.4691677522194
4	17588	42	1.9170802753567
4	18715	43	1.8345014514108
4	20027	44	2.0838538984303
4	21333	45	2.0539801513469
4	22641	46	2.0668686152862
4	24124	47	1.9813596940184
4	25597	48	2.1840996762636
4	27054	49	2.0987681125428
4	28699	50	1.8592856847688
4	30325	51	2.0145873760113
4	31935	52	2.0950692067684
4	33862	53	1.8080099866508
4	35771	54	1.9870007069688
4	37670	55	2.2415869227426
4	39790	56	2.0614496349521
4	41902	57	2.0646020593826
4	44014	58	1.8102089718445
4	46330	59	2.1453880261281
4	48629	60	1.9826536733129
4	50895	61	2.0673636130683
4	53388	62	2.0538817544551
4	55859	63	2.1528270365066
4	58320	64	2.0265038417738
4	60971	65	1.9764402783138
4	63614	66	2.2347131127692
4	66239	67	2.0405446651404
4	69062	68	1.6487905152147
4	71836	69	2.0126291187762
4	74562	70	2.0466796925005
4	77489	71	2.3433989621326
4	80362	72	0.973
4	83215	73	0.973
4	86340	74	4.8809554156367
4	89453	75	6.6811452761601
4	92592	76	8.1607584221603
4	95958	77	6.9480584672652
4	99318	78	1.6680322027993
4	102683	79	2.2170514259717
4	106295	80	2.1579993066844
4	109864	81	1.8393252185798
4	113404	82	2.1131063774542
4	117222	83	2.157506963768
4	121152	84	2.0867532276998
4	125102	85	1.9721338004887
4	129331	86	1.8000889448787
4	133538	87	2.0655927143501
4	137705	88	2.1236171019815
4	142148	89	1.8979343131076
4	146568	90	2.2156768175481
4	150965	91	2.1479163480387
4	155654	92	1.9028703189759
4	160336	93	1.9274090838955
4	165029	94	2.0077586487826
4	170014	95	2.0511097794732
4	174950	96	2.0576484682309
4	179839	97	2.2398922754829
4	185002	98	1.9069349143407
4	190154	99	1.9432214712872
4	195253	100	2.1439613436349
4	200633	101	1.8168896615362
4	206028	102	2.1233006114287
4	211365	103	2.1130242583451
4	217016	104	2.0088001748926
4	222648	105	1.9072621324086
4	228277	106	2.2140373373517
4	234181	107	2.1770614278808
4	240064	108	1.6473510828978
4	245947	109	2.1220983905492
4	252102	110	1.9751750017376
4	258201	111	2.0960799393481
4	264299	112	1.8831767790609
4	270714	113	2.2460956727086
4	277265	114	1.8324400030243
4	283812	115	2.3879104851153
4	290653	116	1.6666890233496
4	297531	117	2.1857539942143
4	304389	118	2.1120842252302
4	311620	119	2.1211551333534
4	318848	120	1.7936195303491
5	32	4	2414.8767583254
5	63	5	2414.8767583254
5	94	6	2411.8725636174
5	125	7	2407.2970525089
5	189	8	2402.4626210862
5	253	9	2396.3056860371
5	317	10	2388.8743536096
5	426	11	2380.097228827
5	535	12	2370.3507264333
5	644	13	2360.5878487076
5	810	14	2350.7849318213
5	976	15	2341.2418729237
5	1142	16	2334.6305580324
5	1377	17	2337.3467480277
5	1612	18	2348.0519014368
5	1847	19	2358.3998493504
5	2163	20	2371.2788021446
5	2479	21	2385.0887639745
5	2795	22	2398.4985461925
5	3204	23	2411.2485283293
5	3613	24	2420.6905829484
5	4022	25	2427.6440450998
5	4536	26	2431.3031180431
5	5050	27	2432.9057471878
5	5564	28	2434.8184996871
5	6195	29	2436.9106889558
5	6826	30	2438.5031214217
5	7457	31	2439.359314087
5	8215	32	2440.3695716034
5	8967	33	2441.3815056744
5	9717	34	2442.392207776
5	10602	35	2443.4019859718
5	11477	36	2444.4122552489
5	12346	37	2445.4251439738
5	13354	38	2446.4367595227
5	14348	39	2447.4467230743
5	15328	40	2448.4574488286
5	16459	41	2449.467800329
5	17588	42	2450.4780716181
5	18715	43	2449.7461704329
5	20027	44	2448.6331060936
5	21333	45	2447.5209445587
5	22641	46	2446.407523851
5	24124	47	2445.2946584851
5	25597	48	2444.1824360332
5	27054	49	2443.0706190476
5	28699	50	2441.9568028547
5	30325	51	2440.8451110823
5	31935	52	2439.8503503047
5	33862	53	2438.9091742415
5	35771	54	2438.2310626655
5	37670	55	2433.9050446447
5	39790	56	2424.21615465
5	41902	57	2411.3460908785
5	44014	58	2397.4706148925
5	46330	59	2383.5587488873
5	48629	60	2369.633660475
5	50895	61	2355.7048479554
5	53388	62	2341.7904321874
5	55859	63	2327.8638711022
5	58320	64	2313.9188814831
5	60971	65	2299.9979078089
5	63614	66	2286.0826278217
5	66239	67	2272.1551827891
5	69062	68	2258.2333055256
5	71836	69	2244.3319301521
5	74562	70	2230.5388995206
5	77489	71	2216.7493601282
5	80362	72	2203.5089906314
5	83215	73	2190.3028214657
5	86340	74	2177.2175397498
5	89453	75	2165.2424954871
5	92592	76	2153.7742474813
5	95958	77	2145.5067126864
5	99318	78	2139.5021617314
5	102683	79	2133.1382634535
5	106295	80	2125.5907683726
5	109864	81	2116.6856371113
5	113404	82	2107.1659774036
5	117222	83	2097.6471887421
5	121152	84	2088.1193509075
5	125102	85	2078.5897193553
5	129331	86	2069.0611372048
5	133538	87	2059.5358263678
5	137705	88	2050.0131364827
5	142148	89	2040.1145859665
5	146568	90	2030.1137191838
5	150965	91	2020.1430603783
5	155654	92	2010.1475011546
5	160336	93	2000.1671663148
5	165029	94	1990.1688805242
5	170014	95	1980.1967867191
5	174950	96	1970.2022643924
5	179839	97	1960.2251632516
5	185002	98	1950.2447792089
5	190154	99	1940.2416033717
5	195253	100	1930.4505492545
5	200633	101	1920.7111281679
5	206028	102	1910.9822782709
5	211365	103	1901.2447243325
5	217016	104	1891.5146576024
5	222648	105	1881.7809631245
5	228277	106	1872.0450304444
5	234181	107	1862.3040305478
5	240064	108	1852.5818645544
5	245947	109	1842.8447400127
5	252102	110	1832.9814100579
5	258201	111	1822.8651402954
5	264299	112	1812.7663602663
5	270714	113	1802.7683831069
5	277265	114	1792.8207055556
5	283812	115	1782.8564651203
5	290653	116	1772.894810806
5	297531	117	1762.92641096
5	304389	118	1752.9705464942
5	311620	119	1743.0163782743
5	318848	120	1733.0664695518
6	32	4	1578.4506684253
6	63	5	1578.4506684253
6	94	6	1579.5537930429
6	125	7	1581.4165868293
6	189	8	1586.3131998433
6	253	9	1592.5493268352
6	317	10	1600.0762428036
6	426	11	1608.9662610246
6	535	12	1618.8381252186
6	644	13	1628.7265753681
6	810	14	1638.6555796713
6	976	15	1648.8046840783
6	1142	16	1660.6325348346
6	1377	17	1673.301875555
6	1612	18	1682.2138796467
6	1847	19	1691.5459182626
6	2163	20	1695.5099147679
6	2479	21	1697.3308411958
6	2795	22	1698.6335971011
6	3204	23	1699.8391930545
6	3613	24	1700.7320023719
6	4022	25	1701.2941834759
6	4536	26	1708.3978488175
6	5050	27	1718.9439634858
6	5564	28	1731.5308475178
6	6195	29	1745.2985167308
6	6826	30	1759.1189484736
6	7457	31	1773.033284259
6	8215	32	1786.9263172904
6	8967	33	1800.8424062571
6	9717	34	1814.7415532097
6	10602	35	1828.6279946407
6	11477	36	1842.5211894047
6	12346	37	1856.4504067414
6	13354	38	1870.362115399
6	14348	39	1884.2511058366
6	15328	40	1898.150578063
6	16459	41	1912.0449035605
6	17588	42	1925.9381259941
6	18715	43	1939.8457802581
6	20027	44	1953.7382693188
6	21333	45	1967.6194902081
6	22641	46	1981.5164272105
6	24124	47	1995.4064328251
6	25597	48	2009.2884140396
6	27054	49	2023.165334505
6	28699	50	2037.0672076773
6	30325	51	2050.942565321
6	31935	52	2064.8483957723
6	33862	53	2078.754013543
6	35771	54	2092.6537938379
6	37670	55	2105.6893007364
6	39790	56	2115.3934075218
6	41902	57	2120.5034639826
6	44014	58	2120.5707901428
6	46330	59	2120.100904949
6	48629	60	2119.6305731572
6	50895	61	2119.160115581
6	53388	62	2118.6901442679
6	55859	63	2118.2197627351
6	58320	64	2117.748758764
6	60971	65	2117.2785659507
6	63614	66	2116.8085654471
6	66239	67	2116.3381540589
6	69062	68	2115.8679307271
6	71836	69	2115.0734324455
6	74562	70	2113.117474094
6	77489	71	2111.1620108271
6	80362	72	2106.8134566117
6	83215	73	2102.3345389208
6	86340	74	2097.6439806372
6	89453	75	2090.5944611588
6	92592	76	2083.8432846358
6	95958	77	2078.976317442
6	99318	78	2075.2888157107
6	102683	79	2069.0204663062
6	106295	80	2060.9635068728
6	109864	81	2051.4572692998
6	113404	82	2041.2950219223
6	117222	83	2031.1337043885
6	121152	84	2020.9627268519
6	125102	85	2010.7898345208
6	129331	86	2000.6180624254
6	133538	87	1990.4497824619
6	137705	88	1980.2843003673
6	142148	89	1970.4765505949
6	146568	90	1960.7547187759
6	150965	91	1951.0622520996
6	155654	92	1941.3455797536
6	160336	93	1931.6437070146
6	165029	94	1921.9243841758
6	170014	95	1912.2305225376
6	174950	96	1902.5148581574
6	179839	97	1892.8161288938
6	185002	98	1883.1142083248
6	190154	99	1873.3901318768
6	195253	100	1863.491690998
6	200633	101	1853.5113144172
6	206028	102	1843.5417705588
6	211365	103	1833.5633073198
6	217016	104	1823.5925165238
6	222648	105	1813.618008229
6	228277	106	1803.6412063586
6	234181	107	1793.6592119075
6	240064	108	1783.6965173148
6	245947	109	1773.7184940958
6	252102	110	1763.8847696399
6	258201	111	1754.2768921675
6	264299	112	1744.6856254824
6	270714	113	1734.9963352662
6	277265	114	1725.2474866733
6	283812	115	1715.4824062474
6	290653	116	1705.7198602511
6	297531	117	1695.9507035501
6	304389	118	1686.1938316785
6	311620	119	1676.4386221487
6	318848	120	1666.6875869809
7	63	5	4.0332649588119
7	94	6	5.8265110515686
7	125	7	7.7852127750962
7	189	8	9.5658873894228
7	253	9	11.450149483434
7	317	10	13.391487500134
7	426	11	13.949883621705
7	535	12	13.87602620427
7	644	13	13.885232782268
7	810	14	13.987373048679
7	976	15	13.890608048609
7	1142	16	13.887004709987
7	1377	17	13.926980708602
7	1612	18	13.89086526999
7	1847	19	13.965056618985
7	2163	20	13.946692067499
7	2479	21	13.097137451398
7	2795	22	11.939132677032
7	3204	23	7.4783001788439
7	3613	24	7.8592269216425
7	4022	25	9.5749213322898
7	4536	26	11.610942506126
7	5050	27	13.581243869506
7	5564	28	13.973211987913
7	6195	29	13.918392209036
7	6826	30	13.928662607018
7	7457	31	13.985277111761
7	8215	32	13.95532245066
7	8967	33	13.938708755139
7	9717	34	13.908545650935
7	10602	35	13.927478809105
7	11477	36	13.897819017794
7	12346	37	13.989504252097
7	13354	38	13.94374062394
7	14348	39	13.903882643976
7	15328	40	13.969130632835
7	16459	41	13.884234787642
7	17588	42	13.881978327318
7	18715	43	13.927070145076
7	20027	44	13.922745489741
7	21333	45	13.95273740395
7	22641	46	13.968270483359
7	24124	47	13.918685564972
7	25597	48	13.921468284922
7	27054	49	13.897015957548
7	28699	50	13.964752228069
7	30325	51	13.91147568828
7	31935	52	13.974545761354
7	33862	53	13.965476403411
7	35771	54	13.989670229855
7	37670	55	13.951804798429
7	39790	56	13.892850009208
7	41902	57	13.958218119799
7	44014	58	13.933717581006
7	46330	59	13.982012811573
7	48629	60	13.954506225567
7	50895	61	13.954468280503
7	53388	62	13.914126337939
7	55859	63	13.998578815588
7	58320	64	13.932968401979
7	60971	65	13.954534002345
7	63614	66	13.957377178506
7	66239	67	13.932528918332
7	69062	68	13.977439161665
7	71836	69	13.873707558191
7	74562	70	13.945779315263
7	77489	71	13.942668949808
7	80362	72	13.91575948562
7	83215	73	13.907857767178
7	86340	74	13.74288410399
7	89453	75	12.057991498623
7	92592	76	7.5687227125094
7	95958	77	7.8527784139012
7	99318	78	9.8502493766883
7	102683	79	11.94908444162
7	106295	80	13.947927183691
7	109864	81	13.884608772129
7	113404	82	13.932486002932
7	117222	83	13.933768573357
7	121152	84	13.982790281298
7	125102	85	13.883384850675
7	129331	86	13.990208008899
7	133538	87	13.960943002203
7	137705	88	13.999323605334
7	142148	89	13.898829272678
7	146568	90	13.923322260124
7	150965	91	13.97501944537
7	155654	92	13.884102251558
7	160336	93	13.933503699079
7	165029	94	13.929935510485
7	170014	95	13.932084917249
7	174950	96	13.988024637371
7	179839	97	13.905199357776
7	185002	98	13.983067730833
7	190154	99	13.914689087677
7	195253	100	13.959573372188
7	200633	101	13.923151327679
7	206028	102	13.932330102022
7	211365	103	13.918786156045
7	217016	104	13.941547459932
7	222648	105	13.993384758611
7	228277	106	13.9334619325
7	234181	107	13.965882125574
7	240064	108	13.965947124253
7	245947	109	13.962241288945
7	252102	110	13.920445105487
7	258201	111	13.900235885235
7	264299	112	13.927397497708
7	270714	113	13.881139268694
7	277265	114	13.958390111653
7	283812	115	13.981258456206
7	290653	116	13.984943927396
7	297531	117	13.922500399102
7	304389	118	13.970498575137
7	311620	119	13.977092044705
7	318848	120	13.902077802429
8	94	6	1.7932460927567
8	125	7	1.9587017235276
8	189	8	1.7806746143266
8	253	9	1.8842620940111
8	317	10	1.9413380167005
8	426	11	0.5583961215709
8	535	12	-0.073857417434921
8	644	13	0.0092065779981212
8	810	14	0.10214026641101
8	976	15	-0.096765000070445
8	1142	16	-0.0036033386224883
8	1377	17	0.039975998615846
8	1612	18	-0.036115438612178
8	1847	19	0.074191348995083
8	2163	20	-0.018364551486448
8	2479	21	-0.84955461610103
8	2795	22	-1.1580047743662
8	3204	23	-4.4608324981877
8	3613	24	0.38092674279862
8	4022	25	1.7156944106473
8	4536	26	2.0360211738362
8	5050	27	1.9703013633797
8	5564	28	0.39196811840698
8	6195	29	-0.054819778876846
8	6826	30	0.010270397982096
8	7457	31	0.056614504742901
8	8215	32	-0.029954661100637
8	8967	33	-0.016613695521373
8	9717	34	-0.030163104203529
8	10602	35	0.018933158169965
8	11477	36	-0.029659791311714
8	12346	37	0.091685234303586
8	13354	38	-0.045763628156855
8	14348	39	-0.039857979963999
8	15328	40	0.065247988859191
8	16459	41	-0.08489584519295
8	17588	42	-0.0022564603248618
8	18715	43	0.045091817758511
8	20027	44	-0.0043246553349299
8	21333	45	0.029991914208512
8	22641	46	0.015533079409506
8	24124	47	-0.0495849183877
8	25597	48	0.0027827199501917
8	27054	49	-0.024452327373437
8	28699	50	0.067736270520836
8	30325	51	-0.053276539789513
8	31935	52	0.063070073074195
8	33862	53	-0.0090693579427903
8	35771	54	0.024193826443517
8	37670	55	-0.037865431425162
8	39790	56	-0.058954789221753
8	41902	57	0.065368110591081
8	44014	58	-0.024500538792926
8	46330	59	0.048295230567454
8	48629	60	-0.027506586005911
8	50895	61	-3.7945064249811e-05
8	53388	62	-0.040341942564119
8	55859	63	0.08445247764932
8	58320	64	-0.065610413609539
8	60971	65	0.021565600365866
8	63614	66	0.0028431761614058
8	66239	67	-0.024848260174041
8	69062	68	0.044910243332852
8	71836	69	-0.10373160347343
8	74562	70	0.072071757072118
8	77489	71	-0.0031103654555054
8	80362	72	-0.02690946418792
8	83215	73	-0.0079017184418628
8	86340	74	-0.16497366318824
8	89453	75	-1.6848926053673
8	92592	76	-4.4892687861132
8	95958	77	0.28405570139177
8	99318	78	1.997470962787
8	102683	79	2.0988350649318
8	106295	80	1.9988427420706
8	109864	81	-0.063318411561289
8	113404	82	0.04787723080255
8	117222	83	0.0012825704249551
8	121152	84	0.049021707940847
8	125102	85	-0.099405430622864
8	129331	86	0.10682315822458
8	133538	87	-0.029265006696805
8	137705	88	0.038380603131372
8	142148	89	-0.1004943326558
8	146568	90	0.024492987445557
8	150965	91	0.05169718524674
8	155654	92	-0.090917193812784
8	160336	93	0.049401447521522
8	165029	94	-0.0035681885946541
8	170014	95	0.0021494067646568
8	174950	96	0.055939720121678
8	179839	97	-0.082825279594399
8	185002	98	0.077868373056408
8	190154	99	-0.068378643156029
8	195253	100	0.044884284511209
8	200633	101	-0.036422044509091
8	206028	102	0.0091787743428728
8	211365	103	-0.013543945976998
8	217016	104	0.022761303887236
8	222648	105	0.051837298679166
8	228277	106	-0.059922826110851
8	234181	107	0.032420193073339
8	240064	108	6.4998678864114e-05
8	245947	109	-0.0037058353074837
8	252102	110	-0.041796183458063
8	258201	111	-0.020209220252001
8	264299	112	0.02716161247343
8	270714	113	-0.04625822901493
8	277265	114	0.07725084295962
8	283812	115	0.022868344553281
8	290653	116	0.003685471189673
8	297531	117	-0.062443528294096
8	304389	118	0.04799817603547
8	311620	119	0.0065934695675978
8	318848	120	-0.075014242276085
9	94	6	3.9274001426868
9	125	7	5.2041356246368
9	189	8	5.7574507674447
9	253	9	7.0006276784153
9	317	10	8.2432295261252
9	426	11	3.9110016848773
9	535	12	1.7792042638201
9	644	13	2.0579365757541
9	810	14	2.3818636967155
9	976	15	1.7037407999188
9	1142	16	2.0152488537881
9	1377	17	2.1655550639215
9	1612	18	1.906797412239
9	1847	19	2.2849654495652
9	2163	20	1.9716653983805
9	2479	21	0.973
9	2795	22	0.973
9	3204	23	0.973
9	3613	24	2.2554772362628
9	4022	25	5.6120472675651
9	4536	26	7.5119842129131
9	5050	27	8.4455276517466
9	5564	28	3.3560730035355
9	6195	29	1.8466200733259
9	6826	30	2.0660268329645
9	7457	31	2.2281549844786
9	8215	32	1.9335288120447
9	8967	33	1.9767670407741
9	9717	34	1.9283950769156
9	10602	35	2.0949799016024
9	11477	36	1.9290667558988
9	12346	37	2.3468857079218
9	13354	38	1.8793040227889
9	14348	39	1.8954681876561
9	15328	40	2.2553467174174
9	16459	41	1.7429567241042
9	17588	42	2.0192482635441
9	18715	43	2.1827359052182
9	20027	44	2.0164367628106
9	21333	45	2.1348602115454
9	22641	46	2.0878872407227
9	24124	47	1.8642059318509
9	25597	48	2.0401536442479
9	27054	49	1.9464315106901
9	28699	50	2.2632042711189
9	30325	51	1.851180617826
9	31935	52	2.2486511283506
9	33862	53	2.0047870143605
9	35771	54	2.1193583924862
9	37670	55	1.9065956504161
9	39790	56	1.8305118457369
9	41902	57	2.2544630998412
9	44014	58	1.9497933768092
9	46330	59	2.199742909699
9	48629	60	1.9416842431598
9	50895	61	2.0340583936544
9	53388	62	1.8947902862501
9	55859	63	2.3236156337703
9	58320	64	1.8116807487081
9	60971	65	2.1067187558746
9	63614	66	2.0440470145686
9	66239	67	1.9485115452067
9	69062	68	2.1878187851485
9	71836	69	1.6791237400594
9	74562	70	2.2755265645048
9	77489	71	2.0225291815531
9	80362	72	1.9399893034582
9	83215	73	2.0029455902709
9	86340	74	1.4663345211208
9	89453	75	0.973
9	92592	76	0.973
9	95958	77	2.0711335261948
9	99318	78	6.4152831024102
9	102683	79	7.8881081638602
9	106295	80	8.7525284671264
9	109864	81	1.815189301835
9	113404	82	2.1926999225795
9	117222	83	2.0363789456198
9	121152	84	2.2022797105907
9	125102	85	1.6943401481553
9	129331	86	2.3980130110749
9	133538	87	1.9363832529257
9	137705	88	2.1682681767827
9	142148	89	1.6918937064968
9	146568	90	2.1131931668759
9	150965	91	2.2104031609639
9	155654	92	1.7227981158715
9	160336	93	2.1979337916806
9	165029	94	2.0197021153789
9	170014	95	2.0391171435245
9	174950	96	2.2261991945464
9	179839	97	1.7515996111392
9	185002	98	2.2995223407801
9	190154	99	1.8008227620704
9	195253	100	2.1857101524767
9	200633	101	1.9087755896745
9	206028	102	2.0627447358658
9	211365	103	1.9851118107104
9	217016	104	2.1093420628985
9	222648	105	2.2129857683168
9	228277	106	1.8308220216017
9	234181	107	2.1444722311404
9	240064	108	2.0355784928867
9	245947	109	2.0225109202385
9	252102	110	1.8904941269999
9	258201	111	1.9609544694714
9	264299	112	2.1225900669388
9	270714	113	1.8719619172019
9	277265	114	2.2944565722334
9	283812	115	2.1139814038152
9	290653	116	2.0497258004765
9	297531	117	1.8214044611061
9	304389	118	2.1974299774128
9	311620	119	2.0587102346889
9	318848	120	1.7775142086521
10	125	7	2414.8848622198
10	189	8	2414.8848622198
10	253	9	2412.0691307599
10	317	10	2407.3819784434
10	426	11	2402.4639103656
10	535	12	2396.2016479742
10	644	13	2388.5021761758
10	810	14	2379.5347220144
10	976	15	2369.7521497252
10	1142	16	2359.9648396304
10	1377	17	2350.1637192596
10	1612	18	2340.717056727
10	1847	19	2334.4889366638
10	2163	20	2338.0188398167
10	2479	21	2348.6970945761
10	2795	22	2359.0578910074
10	3204	23	2372.1753142256
10	3613	24	2385.9847009928
10	4022	25	2399.0560799135
10	4536	26	2411.469456295
10	5050	27	2420.8240344936
10	5564	28	2428.2511095385
10	6195	29	2431.5096723901
10	6826	30	2433.2168502312
10	7457	31	2435.2011956087
10	8215	32	2437.29147981
10	8967	33	2438.672857787
10	9717	34	2439.5458305131
10	10602	35	2440.5569901068
10	11477	36	2441.5662171456
10	12346	37	2442.5764760413
10	13354	38	2443.5864360537
10	14348	39	2444.5969193554
10	15328	40	2445.6077267987
10	16459	41	2446.6171177449
10	17588	42	2447.6285385494
10	18715	43	2448.6389437378
10	20027	44	2449.6489775468
10	21333	45	2450.659299592
10	22641	46	2449.5461587089
10	24124	47	2448.4337074455
10	25597	48	2447.3207898499
10	27054	49	2446.207873206
10	28699	50	2445.0940501215
10	30325	51	2443.9833638043
10	31935	52	2442.8694501355
10	33862	53	2441.7571938549
10	35771	54	2440.6460889142
10	37670	55	2439.6824932018
10	39790	56	2438.741084579
10	41902	57	2437.8178922307
10	44014	58	2432.628875918
10	46330	59	2422.099758557
10	48629	60	2408.9617932498
10	50895	61	2395.0275024913
10	53388	62	2381.1194986589
10	55859	63	2367.2108877165
10	58320	64	2353.2913366285
10	60971	65	2339.3363710896
10	63614	66	2325.3913249692
10	66239	67	2311.4476897647
10	69062	68	2297.4983647275
10	71836	69	2283.5801531249
10	74562	70	2269.6389171832
10	77489	71	2255.7127677456
10	80362	72	2241.8359768615
10	83215	73	2228.0496562888
10	86340	74	2214.3204117303
10	89453	75	2201.1356404887
10	92592	76	2187.9527212165
10	95958	77	2175.0638567568
10	99318	78	2163.8270147669
10	102683	79	2153.0802669595
10	106295	80	2145.0715277719
10	109864	81	2138.8791204049
10	113404	82	2132.1538470712
10	117222	83	2124.1794652122
10	121152	84	2114.9682953636
10	125102	85	2105.4503674875
10	129331	86	2095.9174355941
10	133538	87	2086.3855086367
10	137705	88	2076.854366392
10	142148	89	2067.3279705069
10	146568	90	2057.7989259652
10	150965	91	2048.2657166205
10	155654	92	2038.283265963
10	160336	93	2028.2931978384
10	165029	94	2018.3027401837
10	170014	95	2008.3179219114
10	174950	96	1998.3240517773
10	179839	97	1988.3419555381
10	185002	98	1978.344027573
10	190154	99	1968.3550932935
10	195253	100	1958.3543494703
10	200633	101	1948.3578532202
10	206028	102	1938.3583427321
10	211365	103	1928.618618476
10	217016	104	1918.8845092345
10	222648	105	1909.1398994639
10	228277	106	1899.4163005566
10	234181	107	1889.6917406092
10	240064	108	1879.9546263734
10	245947	109	1870.2146439165
10	252102	110	1860.4817766254
10	258201	111	1850.7588696732
10	264299	112	1841.0270894129
10	270714	113	1831.0817296832
10	277265	114	1820.9827286402
10	283812	115	1810.8857373192
10	290653	116	1800.9095892153
10	297531	117	1790.9641635513
10	304389	118	1781.0157404179
10	311620	119	1771.0520895839
10	318848	120	1761.0958624202
11	125	7	1578.4476927174
11	189	8	1578.4476927174
11	253	9	1579.4816146148
11	317	10	1581.3305685576
11	426	11	1586.311893981
11	535	12	1592.6547030602
11	644	13	1600.4532072712
11	810	14	1609.5360029312
11	976	15	1619.4444009606
11	1142	16	1629.3575977338
11	1377	17	1639.2847824143
11	1612	18	1649.4765304932
11	1847	19	1661.4854336744
11	2163	20	1673.8446300924
11	2479	21	1682.7957309801
11	2795	22	1692.1393567109
11	3204	23	1695.6439150097
11	3613	24	1697.4374776948
11	4022	25	1698.6863156371
11	4536	26	1699.860083269
11	5050	27	1700.7446211064
11	5564	28	1701.4003788568
11	6195	29	1709.757081449
11	6826	30	1720.9911797
11	7457	31	1734.0491812732
11	8215	32	1747.8043141738
11	8967	33	1761.6824669717
11	9717	34	1775.5982529195
11	10602	35	1789.5036912933
11	11477	36	1803.3825532272
11	12346	37	1817.2756052278
11	13354	38	1831.1645469936
11	14348	39	1845.0606850199
11	15328	40	1858.9612806309
11	16459	41	1872.8423966132
11	17588	42	1886.7514271513
11	18715	43	1900.646490965
11	20027	44	1914.536447579
11	21333	45	1928.4487420022
11	22641	46	1942.3421864314
11	24124	47	1956.2270235084
11	25597	48	1970.117681019
11	27054	49	1984.0083266487
11	28699	50	1997.9102858361
11	30325	51	2011.7730940934
11	31935	52	2025.6761838896
11	33862	53	2039.5585873295
11	35771	54	2053.4266205495
11	37670	55	2067.3284383547
11	39790	56	2081.2374921273
11	41902	57	2095.1151711773
11	44014	58	2107.8121583294
11	46330	59	2116.6019557538
11	48629	60	2120.9589145361
11	50895	61	2120.4882719275
11	53388	62	2120.0185171831
11	55859	63	2119.548741932
11	58320	64	2119.0785971684
11	60971	65	2118.6072562514
11	63614	66	2118.1362503711
11	66239	67	2117.6652921457
11	69062	68	2117.1941417418
11	71836	69	2116.724042221
11	74562	70	2116.2531650327
11	77489	71	2115.7827974036
11	80362	72	2114.7194869779
11	83215	73	2112.7644801643
11	86340	74	2110.4801872596
11	89453	75	2106.008526748
11	92592	76	2101.537494339
11	95958	77	2096.3761414643
11	99318	78	2089.7611900093
11	102683	79	2083.4347492605
11	106295	80	2078.7201309539
11	109864	81	2074.7913125623
11	113404	82	2067.9696007185
11	117222	83	2059.456939172
11	121152	84	2049.6240050644
11	125102	85	2039.46360642
11	129331	86	2029.28719097
11	133538	87	2019.1118482901
11	137705	88	2008.9373432929
11	142148	89	1998.7679050388
11	146568	90	1988.5956393415
11	150965	91	1978.4189277124
11	155654	92	1968.6963263936
11	160336	93	1958.9849919388
11	165029	94	1949.2732788222
11	170014	95	1939.5670477431
11	174950	96	1929.8520173589
11	179839	97	1920.1484323656
11	185002	98	1910.4294573683
11	190154	99	1900.7192251235
11	195253	100	1890.9975128332
11	200633	101	1881.2799296053
11	206028	102	1871.5594162391
11	211365	103	1861.6144378353
11	217016	104	1851.6395045156
11	222648	105	1841.6538108811
11	228277	106	1831.6896479232
11	234181	107	1821.7245001495
11	240064	108	1811.7464874918
11	245947	109	1801.7655356517
11	252102	110	1791.7918750085
11	258201	111	1781.8284211252
11	264299	112	1771.8558744062
11	270714	113	1762.0805575438
11	277265	114	1752.4890809525
11	283812	115	1742.8995130844
11	290653	116	1733.1746939719
11	297531	117	1723.4280522568
11	304389	118	1713.6784729837
11	311620	119	1703.9139703736
11	318848	120	1694.1567430533
12	189	8	3.930963162637
12	253	9	5.9263112237273
12	317	10	7.8381960794392
12	426	11	9.790430662247
12	535	12	11.728100012452
12	644	13	13.629514704516
12	810	14	13.941568216505
12	976	15	13.881279769889
12	1142	16	13.897868440901
12	1377	17	13.925429278756
12	1612	18	13.988464023101
12	1847	19	13.968606978769
12	2163	20	13.918509052745
12	2479	21	13.924308654484
12	2795	22	13.951645852409
12	3204	23	13.87926841794
12	3613	24	12.793519969494
12	4022	25	11.84351296104
12	4536	26	7.4038563960913
12	5050	27	8.4727548549238
12	5564	28	10.367830629347
12	6195	29	12.18869854925
12	6826	30	13.961659159465
12	7457	31	13.954832898835
12	8215	32	13.985199820679
12	8967	33	13.894128147855
12	9717	34	13.93747920732
12	10602	35	13.922516686122
12	11477	36	13.936551663636
12	12346	37	13.899921349036
12	13354	38	13.905686459227
12	14348	39	13.974518650502
12	15328	40	13.926188751743
12	16459	41	13.91506882193
12	17588	42	13.902084701743
12	18715	43	13.906688486487
12	20027	44	13.974945872892
12	21333	45	13.897515056985
12	22641	46	13.921723058985
12	24124	47	13.971591069859
12	25597	48	13.925448836959
12	27054	49	13.871581884674
12	28699	50	13.876423048137
12	30325	51	13.873938687814
12	31935	52	13.902598275633
12	33862	53	13.87539361449
12	35771	54	13.972987024514
12	37670	55	13.957628285089
12	39790	56	13.950985880545
12	41902	57	13.943263569523
12	44014	58	13.891897078918
12	46330	59	13.874182712052
12	48629	60	13.982985400616
12	50895	61	13.927164004399
12	53388	62	13.899862960158
12	55859	63	13.960168966714
12	58320	64	13.961850514959
12	60971	65	13.962242161995
12	63614	66	13.925234322341
12	66239	67	13.991972472956
12	69062	68	13.975208927125
12	71836	69	13.946616810667
12	74562	70	13.894927249895
12	77489	71	13.997537077854
12	80362	72	13.937148143742
12	83215	73	13.949254455173
12	86340	74	13.872561737457
12	89453	75	13.941436031195
12	92592	76	13.877849130908
12	95958	77	12.619268954948
12	99318	78	11.767659231051
12	102683	79	7.2714327337119
12	106295	80	8.4181567059542
12	109864	81	10.470719517201
12	113404	82	12.55852173912
12	117222	83	13.888510530582
12	121152	84	13.878650632019
12	125102	85	13.945760953585
12	129331	86	13.92992599302
12	133538	87	13.882018232113
12	137705	88	13.939167882889
12	142148	89	13.977764886424
12	146568	90	13.894534370045
12	150965	91	13.966682291413
12	155654	92	13.930039903398
12	160336	93	13.975413697299
12	165029	94	13.895980606813
12	170014	95	13.916025194719
12	174950	96	13.874023362922
12	179839	97	13.903165594626
12	185002	98	13.893743275884
12	190154	99	13.891417812335
12	195253	100	13.984807741477
12	200633	101	13.97742042881
12	206028	102	13.879850411245
12	211365	103	13.943355088918
12	217016	104	13.925188815154
12	222648	105	13.917930745294
12	228277	106	13.87493168453
12	234181	107	13.921017476872
12	240064	108	13.990385143103
12	245947	109	13.935680139754
12	252102	110	13.969463695099
12	258201	111	13.889440936679
12	264299	112	13.989204638558
12	270714	113	13.933531372249
12	277265	114	13.906106956222
12	283812	115	13.986745798232
12	290653	116	13.939984536606
12	297531	117	13.872806662985
12	304389	118	13.997721134285
12	311620	119	13.972812251244
12	318848	120	13.969063766259
13	253	9	1.9953480610903
13	317	10	1.9118848557118
13	426	11	1.9522345828079
13	535	12	1.9376693502045
13	644	13	1.9014146920643
13	810	14	0.31205351198868
13	976	15	-0.060288446615449
13	1142	16	0.016588671011849
13	1377	17	0.027560837855562
13	1612	18	0.063034744344186
13	1847	19	-0.019857044331729
13	2163	20	-0.050097926023881
13	2479	21	0.0057996017392714
13	2795	22	0.027337197924499
13	3204	23	-0.072377434468363
13	3613	24	-1.0857484484466
13	4022	25	-0.95000700845353
13	4536	26	-4.439656564949
13	5050	27	1.0688984588324
13	5564	28	1.8950757744233
13	6195	29	1.8208679199032
13	6826	30	1.7729606102145
13	7457	31	-0.0068262606300422
13	8215	32	0.03036692184396
13	8967	33	-0.091071672823745
13	9717	34	0.043351059465204
13	10602	35	-0.01496252119774
13	11477	36	0.014034977513365
13	12346	37	-0.036630314600188
13	13354	38	0.0057651101914225
13	14348	39	0.068832191275433
13	15328	40	-0.048329898759256
13	16459	41	-0.01111992981285
13	17588	42	-0.012984120186884
13	18715	43	0.0046037847432316
13	20027	44	0.068257386405021
13	21333	45	-0.077430815906265
13	22641	46	0.02420800199965
13	24124	47	0.049868010873906
13	25597	48	-0.046142232900019
13	27054	49	-0.053866952285171
13	28699	50	0.0048411634634249
13	30325	51	-0.0024843603232867
13	31935	52	0.028659587819128
13	33862	53	-0.027204661143477
13	35771	54	0.09759341002442
13	37670	55	-0.015358739425428
13	39790	56	-0.0066424045432356
13	41902	57	-0.007722311022226
13	44014	58	-0.051366490605288
13	46330	59	-0.017714366866276
13	48629	60	0.10880268856417
13	50895	61	-0.055821396217215
13	53388	62	-0.027301044240593
13	55859	63	0.06030600655591
13	58320	64	0.0016815482452515
13	60971	65	0.00039164703572148
13	63614	66	-0.037007839654107
13	66239	67	0.066738150615711
13	69062	68	-0.0167635458312
13	71836	69	-0.028592116457874
13	74562	70	-0.051689560771921
13	77489	71	0.10260982795851
13	80362	72	-0.060388934111689
13	83215	73	0.01210631143069
13	86340	74	-0.076692717715632
13	89453	75	0.068874293738045
13	92592	76	-0.063586900287774
13	95958	77	-1.2585801759596
13	99318	78	-0.85160972389679
13	102683	79	-4.4962264973393
13	106295	80	1.1467239722423
13	109864	81	2.0525628112466
13	113404	82	2.0878022219194
13	117222	83	1.3299887914615
13	121152	84	-0.0098598985630094
13	125102	85	0.067110321565998
13	129331	86	-0.015834960564971
13	133538	87	-0.047907760906964
13	137705	88	0.057149650775827
13	142148	89	0.038597003535834
13	146568	90	-0.0832305163797
13	150965	91	0.072147921368014
13	155654	92	-0.036642388014588
13	160336	93	0.045373793900945
13	165029	94	-0.079433090486564
13	170014	95	0.020044587906449
13	174950	96	-0.04200183179695
13	179839	97	0.029142231703736
13	185002	98	-0.0094223187421445
13	190154	99	-0.0023254635487682
13	195253	100	0.093389929141848
13	200633	101	-0.0073873126669781
13	206028	102	-0.097570017564577
13	211365	103	0.063504677673336
13	217016	104	-0.0181662737648
13	222648	105	-0.0072580698598177
13	228277	106	-0.042999060763977
13	234181	107	0.0460857923422
13	240064	108	0.069367666230537
13	245947	109	-0.054705003348644
13	252102	110	0.033783555345144
13	258201	111	-0.080022758420091
13	264299	112	0.09976370187942
13	270714	113	-0.055673266309315
13	277265	114	-0.027424416027497
13	283812	115	0.08063884200994
13	290653	116	-0.046761261625216
13	297531	117	-0.067177873621695
13	304389	118	0.12491447129985
13	311620	119	-0.024908883040771
13	318848	120	-0.0037484849849712
14	253	9	4.2649508166984
14	317	10	5.1441608835298
14	426	11	6.2752675611406
14	535	12	7.3015557220543
14	644	13	8.2469806235914
14	810	14	3.0813423760871
14	976	15	1.825038103975
14	1142	16	2.0839753981971
14	1377	17	2.1237162576214
14	1612	18	2.2501690272635
14	1847	19	1.9687844028223
14	2163	20	1.8624692368163
14	2479	21	2.0505690853877
14	2795	22	2.1258147014109
14	3204	23	1.7844264067381
14	3613	24	0.973
14	4022	25	0.973
14	4536	26	0.973
14	5050	27	3.7575341079103
14	5564	28	6.4482222684255
14	6195	29	7.2140195323343
14	6826	30	8.0005078452345
14	7457	31	2.0112657729674
14	8215	32	2.1396802881933
14	8967	33	1.7230808185304
14	9717	34	2.1780640158967
14	10602	35	1.980720158986
14	11477	36	2.0794954629949
14	12346	37	1.9059152732614
14	13354	38	2.0485298427513
14	14348	39	2.2680539427787
14	15328	40	1.8690933945628
14	16459	41	1.9928741031296
14	17588	42	1.9853406570184
14	18715	43	2.0447410785649
14	20027	44	2.2661688405632
14	21333	45	1.7690384486571
14	22641	46	2.1120645090544
14	24124	47	2.2038504354464
14	25597	48	1.8763684319447
14	27054	49	1.8456610488087
14	28699	50	2.0424227277346
14	30325	51	2.0176736696174
14	31935	52	2.1249196677245
14	33862	53	1.9351566644326
14	35771	54	2.3647248781457
14	37670	55	1.9828454643184
14	39790	56	2.0114971183472
14	41902	57	2.007091813677
14	44014	58	1.8558336695686
14	46330	59	1.9667740746073
14	48629	60	2.4037578966905
14	50895	61	1.844036691971
14	53388	62	1.9371616602798
14	55859	63	2.2376623461065
14	58320	64	2.0405988072341
14	60971	65	2.0362986285583
14	63614	66	1.9070037954822
14	66239	67	2.2630700095878
14	69062	68	1.9798474403324
14	71836	69	1.9372818212763
14	74562	70	1.8550225742329
14	77489	71	2.3847397299678
14	80362	72	1.8295794064806
14	83215	73	2.0743518631084
14	86340	74	1.7694347592009
14	89453	75	2.2642644670172
14	92592	76	1.8137074180615
14	95958	77	0.973
14	99318	78	0.973
14	102683	79	0.973
14	106295	80	3.8976468345674
14	109864	81	6.9006815444997
14	113404	82	8.2177466262902
14	117222	83	6.4791082854315
14	121152	84	1.9934802295803
14	125102	85	2.2588493406892
14	129331	86	1.9785202232272
14	133538	87	1.866522840978
14	137705	88	2.2246081928829
14	142148	89	2.1665886194004
14	146568	90	1.7493699939429
14	150965	91	2.2782826967557
14	155654	92	1.908677970281
14	160336	93	2.1891507767845
14	165029	94	1.7622054562569
14	170014	95	2.0974873772285
14	174950	96	1.8855500369507
14	179839	97	2.1265985206215
14	185002	98	1.996444163955
14	190154	99	2.0199719555639
14	195253	100	2.3520461315502
14	200633	101	2.0116492969017
14	206028	102	1.7002051043368
14	211365	103	2.2464484993577
14	217016	104	1.9702312999156
14	222648	105	2.0061116329298
14	228277	106	1.8822985255134
14	234181	107	2.1853876837731
14	240064	108	2.2717476857686
14	245947	109	1.8485404127022
14	252102	110	2.1494565898783
14	258201	111	1.7596915426568
14	264299	112	2.3740841163565
14	270714	113	1.8450980460308
14	277265	114	1.9373428051763
14	283812	115	2.3093068646242
14	290653	116	1.8756103342285
14	297531	117	1.801266530449
14	304389	118	2.4600067714863
14	311620	119	1.9521828081964
14	318848	120	2.0230591338095
15	317	10	2414.8652957816
15	426	11	2414.8652957816
15	535	12	2411.9402292009
15	644	13	2407.1594214574
15	810	14	2402.0350675649
15	976	15	2395.5354035812
15	1142	16	2387.5598131203
15	1377	17	2378.2983909701
15	1612	18	2368.4972038758
15	1847	19	2358.719633554
15	2163	20	2348.9248444787
15	2479	21	2339.614370346
15	2795	22	2334.1997176057
15	3204	23	2339.4193692133
15	3613	24	2350.023330241
15	4022	25	2360.3662725991
15	4536	26	2373.90233667
15	5050	27	2387.7152259793
15	5564	28	2400.5914429313
15	6195	29	2412.9398871803
15	6826	30	2421.7139854309
15	7457	31	2429.0882121673
15	8215	32	2431.6639768599
15	8967	33	2433.4302155024
15	9717	34	2435.4611475593
15	10602	35	2437.5533698815
15	11477	36	2438.7684759141
15	12346	37	2439.671540139
15	13354	38	2440.6813741141
15	14348	39	2441.6917844916
15	15328	40	2442.7022041357
15	16459	41	2443.7124593587
15	17588	42	2444.7229332504
15	18715	43	2445.7337078364
15	20027	44	2446.7459111849
15	21333	45	2447.757486716
15	22641	46	2448.7683903823
15	24124	47	2449.7777371067
15	25597	48	2450.5176811377
15	27054	49	2449.4057673637
15	28699	50	2448.2921364765
15	30325	51	2447.1808208324
15	31935	52	2446.0691226661
15	33862	53	2444.9566500478
15	35771	54	2443.8447802094
15	37670	55	2442.731477023
15	39790	56	2441.6197022425
15	41902	57	2440.5080080784
15	44014	58	2439.5670555097
15	46330	59	2438.6556009268
15	48629	60	2437.5062560235
15	50895	61	2431.5722499692
15	53388	62	2420.527699944
15	55859	63	2407.2382113171
15	58320	64	2393.3269784888
15	60971	65	2379.3955530388
15	63614	66	2365.4745847809
15	66239	67	2351.529199079
15	69062	68	2337.6079130118
15	71836	69	2323.6725767179
15	74562	70	2309.7385225614
15	77489	71	2295.8080973643
15	80362	72	2281.8952010303
15	83215	73	2267.9654732505
15	86340	74	2254.0466482575
15	89453	75	2240.2066991659
15	92592	76	2226.4173803013
15	95958	77	2212.7662110776
15	99318	78	2199.5729332234
15	102683	79	2186.3872113026
15	106295	80	2173.6474240444
15	109864	81	2162.5677132215
15	113404	82	2151.8935926168
15	117222	83	2144.3555114834
15	121152	84	2138.2247302437
15	125102	85	2131.6834204124
15	129331	86	2123.8660908783
15	133538	87	2114.7614731657
15	137705	88	2105.2411713355
15	142148	89	2095.7108763196
15	146568	90	2086.1925951599
15	150965	91	2076.6852548176
15	155654	92	2067.1594253494
15	160336	93	2057.632607371
15	165029	94	2048.1022976771
15	170014	95	2038.1078835877
15	174950	96	2028.1127831832
15	179839	97	2018.1190521012
15	185002	98	2008.1323748323
15	190154	99	1998.1359312494
15	195253	100	1988.1404383939
15	200633	101	1978.1503242605
15	206028	102	1968.1436147648
15	211365	103	1958.1542866336
15	217016	104	1948.1541734936
15	222648	105	1938.1578784987
15	228277	106	1928.3954472626
15	234181	107	1918.6526167148
15	240064	108	1908.9362453276
15	245947	109	1899.2078825037
15	252102	110	1889.4688579363
15	258201	111	1879.7255672845
15	264299	112	1870.0024786359
15	270714	113	1860.269699625
15	277265	114	1850.5221751429
15	283812	115	1840.7925010396
15	290653	116	1830.8378176877
15	297531	117	1820.7311530442
15	304389	118	1810.6303230971
15	311620	119	1800.6606490531
15	318848	120	1790.7039333233
16	317	10	1578.4548774119
16	426	11	1578.4548774119
16	535	12	1579.5289465943
16	644	13	1581.5559881236
16	810	14	1586.7462526578
16	976	15	1593.3295168448
16	1142	16	1601.4076912217
16	1377	17	1610.7882359559
16	1612	18	1620.7154882178
16	1847	19	1630.6188199436
16	2163	20	1640.5395918936
16	2479	21	1650.8881406859
16	2795	22	1663.2272230769
16	3204	23	1674.9756418047
16	3613	24	1683.991763521
16	4022	25	1693.3192880014
16	4536	26	1695.9020503219
16	5050	27	1697.6139621651
16	5564	28	1698.8314944636
16	6195	29	1699.9991223291
16	6826	30	1700.8287719106
16	7457	31	1701.8119543158
16	8215	32	1710.77248332
16	8967	33	1722.3952316754
16	9717	34	1735.7597972872
16	10602	35	1749.5276840087
16	11477	36	1763.4065813264
16	12346	37	1777.3270081691
16	13354	38	1791.2142166747
16	14348	39	1805.1093518483
16	15328	40	1819.0046144547
16	16459	41	1832.8976159496
16	17588	42	1846.7936245678
16	18715	43	1860.6937683271
16	20027	44	1874.6135603888
16	21333	45	1888.5247187214
16	22641	46	1902.4266375881
16	24124	47	1916.3071454344
16	25597	48	1930.2163243052
16	27054	49	1944.0944528161
16	28699	50	1957.9940131316
16	30325	51	1971.8646762054
16	31935	52	1985.7401136523
16	33862	53	1999.6252172682
16	35771	54	2013.5027974071
16	37670	55	2027.3982675895
16	39790	56	2041.2746612821
16	41902	57	2055.1500487765
16	44014	58	2069.0339985425
16	46330	59	2082.9232102502
16	48629	60	2096.7668430749
16	50895	61	2109.1502521159
16	53388	62	2117.3046830418
16	55859	63	2120.90069908
16	58320	64	2120.4308352731
16	60971	65	2119.9602894429
16	63614	66	2119.4900968131
16	66239	67	2119.0190794626
16	69062	68	2118.5488760993
16	71836	69	2118.0781981768
16	74562	70	2117.6075635599
16	77489	71	2117.1370515134
16	80362	72	2116.6671315199
16	83215	73	2116.1966430303
16	86340	74	2115.7265227912
16	89453	75	2114.4884428075
16	92592	76	2112.5330108125
16	95958	77	2109.9530747626
16	99318	78	2105.4785292046
16	102683	79	2101.0065462673
16	106295	80	2095.5423098914
16	109864	81	2089.0198590728
16	113404	82	2082.7361728121
16	117222	83	2078.2986234706
16	121152	84	2074.2687771348
16	125102	85	2067.4674197342
16	129331	86	2059.1224117205
16	133538	87	2049.4032221371
16	137705	88	2039.2402892942
16	142148	89	2029.0666887136
16	146568	90	2018.9059129385
16	150965	91	2008.756816498
16	155654	92	1998.5879828949
16	160336	93	1988.4180940567
16	165029	94	1978.2444778075
16	170014	95	1968.5258373758
16	174950	96	1958.8096110467
16	179839	97	1949.0947158355
16	185002	98	1939.3866776275
16	190154	99	1929.6691455971
16	195253	100	1919.9525377667
16	200633	101	1910.2411585869
16	206028	102	1900.5136470739
16	211365	103	1890.8030319661
16	217016	104	1881.0819327626
16	222648	105	1871.3645451739
16	228277	106	1861.3857453149
16	234181	107	1851.4018749222
16	240064	108	1841.445118295
16	245947	109	1831.4760735603
16	252102	110	1821.4961033091
16	258201	111	1811.5117614288
16	264299	112	1801.5481213536
16	270714	113	1791.5745511744
16	277265	114	1781.5858707186
16	283812	115	1771.6154822633
16	290653	116	1761.8489033254
16	297531	117	1752.2501482666
16	304389	118	1742.6569346823
16	311620	119	1732.9307294944
16	318848	120	1723.1730233738
17	426	11	4.0076977833542
17	535	12	6.1677344774264
17	644	13	8.1549676716625
17	810	14	10.178332106699
17	976	15	12.262859039094
17	1142	16	13.909239285488
17	1377	17	13.972104677679
17	1612	18	13.964405047395
17	1847	19	13.904001857305
17	2163	20	13.959390929798
17	2479	21	13.878038117993
17	2795	22	13.946876353603
17	3204	23	13.944667257406
17	3613	24	13.919344021892
17	4022	25	13.927560248445
17	4536	26	13.871213583788
17	5050	27	12.691334807668
17	5564	28	11.253789109264
17	6195	29	6.8021452137647
17	6826	30	8.5806848426844
17	7457	31	10.511503565412
17	8215	32	12.634297992723
17	8967	33	13.965718502484
17	9717	34	13.984844662666
17	10602	35	13.956789441942
17	11477	36	13.956542154332
17	12346	37	13.917345386401
17	13354	38	13.978046209081
17	14348	39	13.982312166321
17	15328	40	13.915473192113
17	16459	41	13.879970237834
17	17588	42	13.897895857247
17	18715	43	13.999869057706
17	20027	44	13.978634591533
17	21333	45	13.942230677728
17	22641	46	13.955766034983
17	24124	47	13.950300372976
17	25597	48	13.917481608128
17	27054	49	13.942320762996
17	28699	50	13.893100212866
17	30325	51	13.91633811252
17	31935	52	13.928179549885
17	33862	53	13.968941585214
17	35771	54	13.947614409933
17	37670	55	13.993828555658
17	39790	56	13.915365449623
17	41902	57	13.876728287677
17	44014	58	13.918426910553
17	46330	59	13.974088552413
17	48629	60	13.92781890474
17	50895	61	13.871840020602
17	53388	62	13.950818891171
17	55859	63	13.896373478309
17	58320	64	13.98123223257
17	60971	65	13.934642261642
17	63614	66	13.995758003502
17	66239	67	13.879077432866
17	69062	68	13.899420192223
17	71836	69	13.964884717481
17	74562	70	13.997399434138
17	77489	71	13.963054893557
17	80362	72	13.99507131309
17	83215	73	13.959758597296
17	86340	74	13.892642100183
17	89453	75	13.940251250723
17	92592	76	13.994889584298
17	95958	77	13.944894047023
17	99318	78	13.899651392188
17	102683	79	13.918337521636
17	106295	80	12.682299991135
17	109864	81	11.222258036733
17	113404	82	6.7222580367331
17	117222	83	8.2824802284273
17	121152	84	10.407365347124
17	125102	85	12.288563672635
17	129331	86	13.989832558867
17	133538	87	13.923362842468
17	137705	88	13.975876405358
17	142148	89	13.93839835058
17	146568	90	13.920164887339
17	150965	91	13.987886479371
17	155654	92	13.946328101926
17	160336	93	13.963491377556
17	165029	94	13.876388441026
17	170014	95	13.944492442033
17	174950	96	13.894819367053
17	179839	97	13.957421940223
17	185002	98	13.966641563782
17	190154	99	13.914598768649
17	195253	100	13.908863330737
17	200633	101	13.894138623725
17	206028	102	13.901235898403
17	211365	103	13.94990811937
17	217016	104	13.921953043812
17	222648	105	13.929129816229
17	228277	106	13.918974985403
17	234181	107	13.907798303182
17	240064	108	13.936193511211
17	245947	109	13.887417494578
17	252102	110	13.927996255904
17	258201	111	13.929892551196
17	264299	112	13.96570428649
17	270714	113	13.978785165823
17	277265	114	13.981824356054
17	283812	115	13.9373073718
17	290653	116	13.913057684219
17	297531	117	13.882324437776
17	304389	118	13.872364548203
17	311620	119	13.973435124517
17	318848	120	13.990105855605
18	535	12	2.1600366940722
18	644	13	1.9872331942362
18	810	14	2.0233644350362
18	976	15	2.0845269323955
18	1142	16	1.6463802463939
18	1377	17	0.062865392190869
18	1612	18	-0.0076996302837493
18	1847	19	-0.060403190089856
18	2163	20	0.055389072492252
18	2479	21	-0.081352811804972
18	2795	22	0.068838235610166
18	3204	23	-0.0022090961970385
18	3613	24	-0.025323235513643
18	4022	25	0.0082162265526122
18	4536	26	-0.056346664656886
18	5050	27	-1.1798787761197
18	5564	28	-1.4375456984038
18	6195	29	-4.4516438954996
18	6826	30	1.7785396289197
18	7457	31	1.9308187227277
18	8215	32	2.1227944273106
18	8967	33	1.3314205097611
18	9717	34	0.01912616018206
18	10602	35	-0.028055220723617
18	11477	36	-0.00024728761054682
18	12346	37	-0.039196767930406
18	13354	38	0.060700822679792
18	14348	39	0.0042659572395483
18	15328	40	-0.06683897420764
18	16459	41	-0.035502954279073
18	17588	42	0.017925619413145
18	18715	43	0.10197320045903
18	20027	44	-0.021234466172753
18	21333	45	-0.036403913805263
18	22641	46	0.013535357255023
18	24124	47	-0.0054656620067544
18	25597	48	-0.032818764848635
18	27054	49	0.024839154868388
18	28699	50	-0.049220550130123
18	30325	51	0.023237899653614
18	31935	52	0.011841437364929
18	33862	53	0.040762035329827
18	35771	54	-0.021327175281478
18	37670	55	0.046214145724662
18	39790	56	-0.078463106034324
18	41902	57	-0.038637161946388
18	44014	58	0.041698622875845
18	46330	59	0.055661641859915
18	48629	60	-0.046269647672306
18	50895	61	-0.055978884138167
18	53388	62	0.078978870569262
18	55859	63	-0.054445412862115
18	58320	64	0.084858754260932
18	60971	65	-0.046589970928617
18	63614	66	0.061115741860121
18	66239	67	-0.11668057063594
18	69062	68	0.0203427593573
18	71836	69	0.065464525257703
18	74562	70	0.032514716656879
18	77489	71	-0.034344540580641
18	80362	72	0.032016419533175
18	83215	73	-0.035312715794426
18	86340	74	-0.067116497112439
18	89453	75	0.047609150540083
18	92592	76	0.054638333574404
18	95958	77	-0.049995537274517
18	99318	78	-0.045242654834874
18	102683	79	0.018686129447767
18	106295	80	-1.2360375305007
18	109864	81	-1.4600419544023
18	113404	82	-4.5
18	117222	83	1.5602221916942
18	121152	84	2.1248851186968
18	125102	85	1.8811983255111
18	129331	86	1.7012688862319
18	133538	87	-0.066469716399443
18	137705	88	0.052513562890235
18	142148	89	-0.037478054778184
18	146568	90	-0.018233463240321
18	150965	91	0.067721592031884
18	155654	92	-0.041558377444744
18	160336	93	0.017163275629283
18	165029	94	-0.087102936529554
18	170014	95	0.068104001006576
18	174950	96	-0.0496730749798
18	179839	97	0.062602573169862
18	185002	98	0.0092196235596198
[...]
154	211365	103	2.2716467601775
154	217016	104	1.8467893261902
154	222648	105	2.2996529168346
154	228277	106	1.8573087727484
154	234181	107	2.1256174277063
154	240064	108	0.973
154	245947	109	0.973
154	252102	110	0.973
154	258201	111	3.4025330233425
154	264299	112	6.2439470909666
154	270714	113	6.703612312363
154	277265	114	9.1179268217973
154	283812	115	2.0641953628974
154	290653	116	2.2153612292441
154	297531	117	1.8658940332417
154	304389	118	2.2846672234318
154	311620	119	1.8952088326474
154	318848	120	2.1625806666237
155	165029	94	2414.8345383538
155	170014	95	2414.8345383538
155	174950	96	2411.7921256482
155	179839	97	2407.0864814951
155	185002	98	2402.132386612
155	190154	99	2395.7983188427
155	195253	100	2388.1195620884
155	200633	101	2379.0020808444
155	206028	102	2369.2045644406
155	211365	103	2359.3950672023
155	217016	104	2349.598772413
155	222648	105	2340.2135405464
155	228277	106	2334.3552150509
155	234181	107	2338.6494919553
155	240064	108	2349.3008365452
155	245947	109	2359.6555345602
155	252102	110	2372.9563717548
155	258201	111	2386.7650689685
155	264299	112	2399.8470661935
155	270714	113	2412.2857861625
155	277265	114	2421.3120025779
155	283812	115	2428.3957260202
155	290653	116	2431.5054468
155	297531	117	2433.2040395003
155	304389	118	2435.2119840703
155	311620	119	2437.3026940094
155	318848	120	2438.6768015547
156	165029	94	1578.4661713783
156	170014	95	1578.4661713783
156	174950	96	1579.5833294457
156	179839	97	1581.6298662564
156	185002	98	1586.6476818705
156	190154	99	1593.0632199049
156	195253	100	1600.8407426309
156	200633	101	1610.0754950577
156	206028	102	1619.9990294157
156	211365	103	1629.9346987093
156	217016	104	1639.85699574
156	222648	105	1650.1211095732
156	228277	106	1662.2907571197
156	234181	107	1674.3539196206
156	240064	108	1683.3402006105
156	245947	109	1692.6783266366
156	252102	110	1695.760658443
156	258201	111	1697.5241184747
156	264299	112	1698.7611086722
156	270714	113	1699.9372727098
156	277265	114	1700.7907617474
156	283812	115	1701.4714819603
156	290653	116	1709.7292749174
156	297531	117	1720.9068785766
156	304389	118	1734.1201748364
156	311620	119	1747.878109308
156	318848	120	1761.7535780352
157	170014	95	4.2052558286512
157	174950	96	6.002893242219
157	179839	97	7.883161900444
157	185002	98	9.8673883035709
157	190154	99	11.853042240334
157	195253	100	13.869080203711
157	200633	101	13.883913346287
157	206028	102	13.920034354662
157	211365	103	13.987348329513
157	217016	104	13.90432364187
157	222648	105	13.873058298954
157	228277	106	13.982427640071
157	234181	107	13.981702302136
157	240064	108	13.892212413012
157	245947	109	13.884079835846
157	252102	110	13.939466363527
157	258201	111	12.83774633777
157	264299	112	11.520501545161
157	270714	113	7.0716538057442
157	277265	114	8.1133146383905
157	283812	115	10.264509357995
157	290653	116	12.214292868149
157	297531	117	13.95033479064
157	304389	118	13.872403989958
157	311620	119	13.908112656048
157	318848	120	13.96728348942
158	174950	96	1.7976374135679
158	179839	97	1.880268658225
158	185002	98	1.984226403127
158	190154	99	1.9856539367628
158	195253	100	2.0160379633773
158	200633	101	0.014833142575785
158	206028	102	0.036121008375193
158	211365	103	0.067313974851276
158	217016	104	-0.083024687643627
158	222648	105	-0.031265342915431
158	228277	106	0.1093693411164
158	234181	107	-0.00072533793514573
158	240064	108	-0.089489889123943
158	245947	109	-0.0081325771659611
158	252102	110	0.055386527681257
158	258201	111	-1.1017200257574
158	264299	112	-1.3172447926082
158	270714	113	-4.4488477394171
158	277265	114	1.0416608326463
158	283812	115	2.1511947196047
158	290653	116	1.9497835101536
158	297531	117	1.7360419224912
158	304389	118	-0.077930800681935
158	311620	119	0.035708666089922
158	318848	120	0.059170833372045
159	174950	96	4.0201994287793
159	179839	97	5.1077529096115
159	185002	98	6.3933259660444
159	190154	99	7.5078138857943
159	195253	100	8.7639896884138
159	200633	101	2.0766261205432
159	206028	102	2.15184739874
159	211365	103	2.264462834961
159	217016	104	1.7508597190297
159	222648	105	1.9213582253302
159	228277	106	2.405595628934
159	234181	107	2.0345282639374
159	240064	108	1.7282238207284
159	245947	109	1.9997988908087
159	252102	110	2.2187197196282
159	258201	111	0.973
159	264299	112	0.973
159	270714	113	0.973
159	277265	114	3.5874913416034
159	283812	115	7.0265759013037
159	290653	116	7.6070234144162
159	297531	117	7.8703898154433
159	304389	118	1.7652824317433
159	311620	119	2.149146756568
159	318848	120	2.2346722797367
160	179839	97	2414.8810770222
160	185002	98	2414.8810770222
160	190154	99	2412.0153888349
160	195253	100	2407.3710593774
160	200633	101	2402.5073859703
160	206028	102	2396.3145508688
160	211365	103	2388.7267279918
160	217016	104	2380.5461638676
160	222648	105	2372.3770710515
160	228277	106	2364.1995157663
160	234181	107	2356.0370465319
160	240064	108	2347.856246747
160	245947	109	2340.0933683867
160	252102	110	2334.6953258149
160	258201	111	2335.4114344699
160	264299	112	2344.3045772007
160	270714	113	2353.0019664175
160	277265	114	2361.8150759437
160	283812	115	2373.3444753689
160	290653	116	2384.8893931807
160	297531	117	2396.4757519478
160	304389	118	2408.03911561
160	311620	119	2418.5195407154
160	318848	120	2425.8161331499
161	179839	97	1578.4490826223
161	185002	98	1578.4490826223
161	190154	99	1579.5013483688
161	195253	100	1581.3416280663
161	200633	101	1586.2678591823
161	206028	102	1592.5403479822
161	211365	103	1600.2257672166
161	217016	104	1608.5115516763
161	222648	105	1616.7857172806
161	228277	106	1625.0684542004
161	234181	107	1633.335911029
161	240064	108	1641.6219341801
161	245947	109	1650.2749486417
161	252102	110	1660.2424781155
161	258201	111	1671.4484678907
161	264299	112	1678.9207410384
161	270714	113	1686.677972232
161	277265	114	1694.0953865862
161	283812	115	1695.8186676763
161	290653	116	1697.3071116218
161	297531	117	1698.4423283972
161	304389	118	1699.5357216503
161	311620	119	1700.5267158309
161	318848	120	1701.0822927887
162	185002	98	3.9195603011693
162	190154	99	5.8047475024131
162	195253	100	7.789297424702
162	200633	101	9.6794611797347
162	206028	102	11.659319502495
162	211365	103	11.659747689132
162	217016	104	11.643673477893
162	222648	105	11.665321025707
162	228277	106	11.582236455128
162	234181	107	11.668017776351
162	240064	108	11.588170031408
162	245947	109	11.64112125112
162	252102	110	11.675054164134
162	258201	111	11.690614702022
162	264299	112	11.609580781011
162	270714	113	11.633011027647
162	277265	114	11.682145404919
162	283812	115	11.66549088718
162	290653	116	11.689019769638
162	297531	117	11.621993755939
162	304389	118	8.7264333309437
162	311620	119	7.7795642456217
162	318848	120	9.8971001174851
163	190154	99	1.8851872012438
163	195253	100	1.9845499222889
163	200633	101	1.8901637550327
163	206028	102	1.9798583227607
163	211365	103	0.00042818663641775
163	217016	104	-0.016074211238882
163	222648	105	0.021647547814062
163	228277	106	-0.08308457057923
163	234181	107	0.085781321222894
163	240064	108	-0.079847744943109
163	245947	109	0.052951219712849
163	252102	110	0.033932913013269
163	258201	111	0.015560537888669
163	264299	112	-0.081033921011258
163	270714	113	0.02343024663627
163	277265	114	0.049134377271404
163	283812	115	-0.016654517739081
163	290653	116	0.023528882458342
163	297531	117	-0.06702601369936
163	304389	118	-2.8955604249949
163	311620	119	-0.94686908532204
163	318848	120	2.1175358718634
164	190154	99	4.0453611473868
164	195253	100	5.2548522348047
164	200633	101	6.0699942565079
164	206028	102	7.3820588240483
164	211365	103	1.8201028340263
164	217016	104	1.7724131711472
164	222648	105	1.8802372410215
164	228277	106	1.5803439561382
164	234181	107	2.0608268025488
164	240064	108	1.5897717309428
164	245947	109	1.9658556174589
164	252102	110	1.915692100306
164	258201	111	1.8653955546187
164	264299	112	1.5878720437507
164	270714	113	1.8822928142767
164	277265	114	1.959158369102
164	283812	115	1.7725709397425
164	290653	116	1.8876994869594
164	297531	117	1.6279273444457
164	304389	118	0.973
164	311620	119	0.973
164	318848	120	6.7277414513573
165	195253	100	2414.8650521714
165	200633	101	2414.8650521714
165	206028	102	2411.9260536652
165	211365	103	2407.2993464565
165	217016	104	2402.4390109947
165	222648	105	2396.2273981045
165	228277	106	2388.6387474986
165	234181	107	2379.6896545744
165	240064	108	2370.114478421
165	245947	109	2360.5438194423
165	252102	110	2350.9654128347
165	258201	111	2341.6024090773
165	264299	112	2334.7776501694
165	270714	113	2336.1981071043
165	277265	114	2346.1534130286
165	283812	115	2355.5306777022
165	290653	116	2365.9173562912
165	297531	117	2377.9801004269
165	304389	118	2389.9352306844
165	311620	119	2401.2579886608
165	318848	120	2410.0636676847
166	195253	100	1578.4549668636
166	200633	101	1578.4549668636
166	206028	102	1579.5341517767
166	211365	103	1581.414263376
166	217016	104	1586.3371136133
166	222648	105	1592.6286217254
166	228277	106	1600.3148793355
166	234181	107	1609.3790775929
166	240064	108	1619.0774119077
166	245947	109	1628.7711709477
166	252102	110	1638.4727772688
166	258201	111	1648.3431416871
166	264299	112	1659.7466889061
166	270714	113	1672.2956538051
166	277265	114	1680.5017752489
166	283812	115	1688.9584274059
166	290653	116	1694.7085479386
166	297531	117	1696.4847515924
166	304389	118	1697.8238784345
166	311620	119	1698.8945208136
166	318848	120	1699.7271565683
167	200633	101	3.9747482432421
167	206028	102	5.9205547706802
167	211365	103	7.7196932422365
167	217016	104	9.759767749989
167	222648	105	11.65454738585
167	228277	106	13.693409157151
167	234181	107	13.621773553339
167	240064	108	13.565900853495
167	245947	109	13.606981043895
167	252102	110	13.598889184128
167	258201	111	13.462780088635
167	264299	112	13.084025620239
167	270714	113	12.794968045698
167	277265	114	12.444604082911
167	283812	115	12.27240998218
167	290653	116	12.196539473337
167	297531	117	12.020644730503
167	304389	118	10.160676560073
167	311620	119	8.7469951374526
167	318848	120	8.4196282348731
168	206028	102	1.9458065274381
168	211365	103	1.7991384715564
168	217016	104	2.0400745077524
168	222648	105	1.894779635861
168	228277	106	2.0388617713008
168	234181	107	-0.071635603811592
168	240064	108	-0.055872699844185
168	245947	109	0.041080190399661
168	252102	110	-0.0080918597662816
168	258201	111	-0.13610909549388
168	264299	112	-0.37875446839599
168	270714	113	-0.2890575745407
168	277265	114	-0.3503639627873
168	283812	115	-0.17219410073063
168	290653	116	-0.075870508843151
168	297531	117	-0.17589474283417
168	304389	118	-1.8599681704293
168	311620	119	-1.4136814226206
168	318848	120	-0.32736690257956
169	206028	102	4.1911604728786
169	211365	103	4.8720965269639
169	217016	104	6.4651584860393
169	222648	105	7.1404074961766
169	228277	106	8.7362375013429
169	234181	107	1.7654384891631
169	240064	108	1.8123813441616
169	245947	109	2.1338473465825
169	252102	110	1.9718087740116
169	258201	111	1.5432464238063
169	264299	112	0.973
169	270714	113	0.973
169	277265	114	0.973
169	283812	115	1.3634816445907
169	290653	116	1.6429531707562
169	297531	117	1.3407691684045
169	304389	118	0.973
169	311620	119	0.973
169	318848	120	0.973
170	211365	103	2414.8240978135
170	217016	104	2414.8240978135
170	222648	105	2411.6681135687
170	228277	106	2406.935438895
170	234181	107	2401.7539033822
170	240064	108	2395.0811645105
170	245947	109	2387.0132088575
170	252102	110	2377.578876153
170	258201	111	2367.7962328403
170	264299	112	2358.0027246429
170	270714	113	2348.208310922
170	277265	114	2338.9995719333
170	283812	115	2334.0319650015
170	290653	116	2340.2046584629
170	297531	117	2350.7905112985
170	304389	118	2361.1401282811
170	311620	119	2374.8750311467
170	318848	120	2387.01178416
171	211365	103	1578.4700050903
171	217016	104	1578.4700050903
171	222648	105	1579.6288660346
171	228277	106	1581.782851602
171	234181	107	1587.0310332403
171	240064	108	1593.7895984445
171	245947	109	1601.9613260366
171	252102	110	1611.5170053411
171	258201	111	1621.4254753077
171	264299	112	1631.3449499048
171	270714	113	1641.265341673
171	277265	114	1651.6751783425
171	283812	115	1664.2374943579
171	290653	116	1675.609810099
171	297531	117	1684.6836266145
171	304389	118	1693.9945032271
171	311620	119	1696.0474374266
171	318848	120	1697.5474470435
172	217016	104	4.2292426157767
172	222648	105	6.1353915042804
172	228277	106	8.3616570021842
172	234181	107	10.418563520373
172	240064	108	12.366812310969
172	245947	109	13.907116115768
172	252102	110	13.985286898883
172	258201	111	13.987820330055
172	264299	112	13.913363813516
172	270714	113	13.873915352591
172	277265	114	13.908738816152
172	283812	115	13.996805452956
172	290653	116	13.991617652401
172	297531	117	13.888925071079
172	304389	118	13.572940904409
172	311620	119	11.532680331263
172	318848	120	11.071936269251
173	222648	105	1.9061488885037
173	228277	106	2.2262654979038
173	234181	107	2.0569065181888
173	240064	108	1.9482487905957
173	245947	109	1.5403038047998
173	252102	110	0.078170783114619
173	258201	111	0.0025334311719067
173	264299	112	-0.074456516539213
173	270714	113	-0.039448460924906
173	277265	114	0.03482346356148
173	283812	115	0.088066636803559
173	290653	116	-0.0051878005545589
173	297531	117	-0.10269258132204
173	304389	118	-0.31598416666997
173	311620	119	-2.0402605731464
173	318848	120	-0.46074406201145
174	222648	105	4.2457943213469
174	228277	106	6.0536530005275
174	234181	107	6.8816953207402
174	240064	108	7.6878605237884
174	245947	109	7.1918603002587
174	252102	110	2.3008105683909
174	258201	111	2.0461394504007
174	264299	112	1.780329721598
174	270714	113	1.8940776436006
174	277265	114	2.1462487156574
174	283812	115	2.3355890887787
174	290653	116	2.0204950769698
174	297531	117	1.6837678940054
174	304389	118	0.973
174	311620	119	0.973
174	318848	120	0.973
175	228277	106	2414.8655409296
175	234181	107	2414.8655409296
175	240064	108	2412.0834838527
175	245947	109	2407.4949439961
175	252102	110	2402.7722775177
175	258201	111	2396.7179082003
175	264299	112	2389.3685035968
175	270714	113	2380.7028172436
175	277265	114	2370.9869009802
175	283812	115	2361.1814612881
175	290653	116	2351.3880798389
175	297531	117	2341.7698088895
175	304389	118	2334.7695703001
175	311620	119	2336.7014076737
175	318848	120	2347.4418035352
176	228277	106	1578.454787395
176	234181	107	1578.454787395
176	240064	108	1579.4763442334
176	245947	109	1581.2161500147
176	252102	110	1585.9995605377
176	258201	111	1592.1318025738
176	264299	112	1599.5757369436
176	270714	113	1608.3528833874
176	277265	114	1618.1937680449
176	283812	115	1628.125327603
176	290653	116	1638.0446738219
176	297531	117	1648.1288438728
176	304389	118	1659.795349014
176	311620	119	1672.78072441
176	318848	120	1681.663678078
177	234181	107	3.828069966125
177	240064	108	5.7866292398345
177	245947	109	7.5395164303311
177	252102	110	9.5468448276857
177	258201	111	11.290529159332
177	264299	112	13.168771791569
177	270714	113	13.903825301856
177	277265	114	13.925065363126
177	283812	115	13.888696032611
177	290653	116	13.952015913378
177	297531	117	13.918127564341
177	304389	118	13.938287192802
177	311620	119	13.994584495614
177	318848	120	13.995784487957
178	240064	108	1.9585592737095
178	245947	109	1.7528871904965
178	252102	110	2.0073283973546
178	258201	111	1.7436843316467
178	264299	112	1.8782426322368
178	270714	113	0.73505351028715
178	277265	114	0.021240061270074
178	283812	115	-0.036369330515154
178	290653	116	0.063319880766795
178	297531	117	-0.033888349037152
178	304389	118	0.020159628461114
178	311620	119	0.056297302811872
178	318848	120	0.0011999923433184
179	240064	108	4.1384098388103
179	245947	109	4.6983350304768
179	252102	110	6.2693608943615
179	258201	111	6.5322090948346
179	264299	112	7.917155437987
179	270714	113	4.4920532905178
179	277265	114	2.1024645764927
179	283812	115	1.905745845739
179	290653	116	2.2468444166205
179	297531	117	1.9168062362884
179	304389	118	2.100251967814
179	311620	119	2.2281659769828
179	318848	120	2.042462932931
180	245947	109	2414.873956427
180	252102	110	2414.873956427
180	258201	111	2411.9601517438
180	264299	112	2407.2863330556
180	270714	113	2402.436129107
180	277265	114	2396.345381471
180	283812	115	2388.9531797325
180	290653	116	2380.1309784877
180	297531	117	2370.3627586985
180	304389	118	2360.5787492685
180	311620	119	2350.7931457192
180	318848	120	2341.2672122942
181	245947	109	1578.4516972676
181	252102	110	1578.4516972676
181	258201	111	1579.5216311403
181	264299	112	1581.4274441581
181	270714	113	1586.3400325682
181	277265	114	1592.5091208294
181	283812	115	1599.996402801
181	290653	116	1608.9320772681
181	297531	117	1618.8259381913
181	304389	118	1628.7357918462
181	311620	119	1638.6472601239
181	318848	120	1648.7722457405
182	252102	110	3.9549282409494
182	258201	111	5.9189079660747
182	264299	112	7.6575650758726
182	270714	113	9.4881841101764
182	277265	114	11.371412077156
182	283812	115	13.516443765616
182	290653	116	13.959599067254
182	297531	117	13.890169489407
182	304389	118	13.986980604657
182	311620	119	13.87247590584
182	318848	120	13.997115664829
183	258201	111	1.9639797251252
183	264299	112	1.7386571097979
183	270714	113	1.8306190343038
183	277265	114	1.8832279669796
183	283812	115	2.1450316884601
183	290653	116	0.44315530163829
183	297531	117	-0.069429577847476
183	304389	118	0.096811115250457
183	311620	119	-0.11450469881762
183	318848	120	0.12463975898921
184	258201	111	4.2162160679125
184	264299	112	4.7295265865966
184	270714	113	5.8326075314163
184	277265	114	6.9553988925841
184	283812	115	8.977512736819
184	290653	116	3.525601653959
184	297531	117	1.7952125898503
184	304389	118	2.363849991967
184	311620	119	1.6430120903304
184	318848	120	2.4589997717409
185	264299	112	2414.8746627453
185	270714	113	2414.8746627453
185	277265	114	2411.9400141494
185	283812	115	2407.1603482012
185	290653	116	2402.1025120807
185	297531	117	2395.6343446822
185	304389	118	2387.8387010127
185	311620	119	2379.2860430756
185	318848	120	2370.7454449463
186	264299	112	1578.451437911
186	270714	113	1578.451437911
186	277265	114	1579.5290255602
186	283812	115	1581.5550494594
186	290653	116	1586.6779406546
186	297531	117	1593.2293031402
186	304389	118	1601.1252162075
186	311620	119	1609.7878804374
186	318848	120	1618.4383297432
187	270714	113	4.0468560271259
187	277265	114	6.0858147059931
187	283812	115	8.0796081643962
187	290653	116	10.045355898595
187	297531	117	11.990398769466
187	304389	118	12.229444038724
187	311620	119	12.145468595666
187	318848	120	12.120413108224
188	277265	114	2.0389586788672
188	283812	115	1.9937934584031
188	290653	116	1.9657477341988
188	297531	117	1.9450428708713
188	304389	118	0.23904526925767
188	311620	119	-0.083975443057716
188	318848	120	-0.025055487442296
189	277265	114	4.4149046653037
189	283812	115	5.4307702184807
189	290653	116	6.4471687152879
189	297531	117	7.4682280395223
189	304389	118	2.5734490252549
189	311620	119	1.6156030952469
189	318848	120	1.7859856522156
190	283812	115	2414.8449117928
190	290653	116	2414.8449117928
190	297531	117	2411.7323093369
190	304389	118	2406.8489543897
190	311620	119	2401.6736787073
190	318848	120	2395.1674958445
191	283812	115	1578.4623623062
191	290653	116	1578.4623623062
191	297531	117	1579.6052936828
191	304389	118	1581.8704484915
191	311620	119	1587.1122897835
191	318848	120	1593.7021566965
192	290653	116	4.2921992871535
192	297531	117	6.3890385901157
192	304389	118	8.2062167572414
192	311620	119	10.069799506438
192	318848	120	11.927390349197
193	297531	117	2.0968393029622
193	304389	118	1.8171781671257
193	311620	119	1.8635827491968
193	318848	120	1.8575908427592
194	297531	117	4.6709252960266
194	304389	118	5.1507486498894
194	311620	119	6.2126769618753
194	318848	120	7.1817747034554
195	304389	118	2414.8421889067
195	311620	119	2414.8421889067
195	318848	120	2411.8412578211
196	304389	118	1578.463362135
196	311620	119	1578.463362135
196	318848	120	1579.5652883686
197	311620	119	4.099163855175
197	318848	120	5.8564154620892
198	318848	120	1.7572516069142
199	318848	120	3.8912469078023

